<?xml version="1.0" encoding="UTF-8"?>

<routes>
    <vType id="typeNS" length="7.00" minGap="3.00" maxSpeed="25.00" guiShape="bus" accel="0.8" decel="4.5" sigma="0.5"/>
    <vType id="typeWE" length="5.00" minGap="2.50" maxSpeed="16.67" guiShape="passenger" accel="0.8" decel="4.5" sigma="0.5"/>
    <route edges="-gneE7 gneE5" color="yellow" id="route_0"/>
    <route edges="-gneE7 gneE6" color="yellow" id="route_1"/>
    <route edges="-gneE4 gneE5" color="yellow" id="route_10"/>
    <route edges="-gneE4 gneE6" color="yellow" id="route_11"/>
    <route edges="-gneE7 gneE4" color="yellow" id="route_2"/>
    <route edges="-gneE5 gneE6" color="yellow" id="route_3"/>
    <route edges="-gneE5 gneE4" color="yellow" id="route_4"/>
    <route edges="-gneE5 gneE7" color="yellow" id="route_5"/>
    <route edges="-gneE6 gneE4" color="yellow" id="route_6"/>
    <route edges="-gneE6 gneE7" color="yellow" id="route_7"/>
    <route edges="-gneE6 gneE5" color="yellow" id="route_8"/>
    <route edges="-gneE4 gneE7" color="yellow" id="route_9"/>
    <vehicle id="vehicle_1193" depart="2" departLane="best" departSpeed="speedLimit" route="route_7" />
<vehicle id="vehicle_1194" depart="2" departLane="best" departSpeed="speedLimit" route="route_7" />
<vehicle id="vehicle_1195" depart="2" departLane="best" departSpeed="speedLimit" route="route_7" />
<vehicle id="vehicle_1" depart="3" departLane="best" departSpeed="speedLimit" route="route_5" />
<vehicle id="vehicle_1196" depart="4" departLane="best" departSpeed="speedLimit" route="route_7" />
<vehicle id="vehicle_1197" depart="6" departLane="best" departSpeed="speedLimit" route="route_7" />
<vehicle id="vehicle_1198" depart="12" departLane="best" departSpeed="speedLimit" route="route_7" />
<vehicle id="vehicle_1199" depart="12" departLane="best" departSpeed="speedLimit" route="route_7" />
<vehicle id="vehicle_0" depart="18" departLane="best" departSpeed="speedLimit" route="route_10" />
<vehicle id="vehicle_2" depart="18" departLane="best" departSpeed="speedLimit" route="route_5" />
<vehicle id="vehicle_1200" depart="22" departLane="best" departSpeed="speedLimit" route="route_7" />
<vehicle id="vehicle_1201" depart="22" departLane="best" departSpeed="speedLimit" route="route_7" />
<vehicle id="vehicle_3" depart="25" departLane="best" departSpeed="speedLimit" route="route_1" />
<vehicle id="vehicle_1202" depart="26" departLane="best" departSpeed="speedLimit" route="route_7" />
<vehicle id="vehicle_1203" depart="28" departLane="best" departSpeed="speedLimit" route="route_7" />
<vehicle id="vehicle_1204" depart="28" departLane="best" departSpeed="speedLimit" route="route_7" />
<vehicle id="vehicle_1205" depart="32" departLane="best" departSpeed="speedLimit" route="route_7" />
<vehicle id="vehicle_1206" depart="34" departLane="best" departSpeed="speedLimit" route="route_7" />
<vehicle id="vehicle_4" depart="41" departLane="best" departSpeed="speedLimit" route="route_1" />
<vehicle id="vehicle_1207" depart="48" departLane="best" departSpeed="speedLimit" route="route_7" />
<vehicle id="vehicle_5" depart="51" departLane="best" departSpeed="speedLimit" route="route_3" />
<vehicle id="vehicle_1208" depart="52" departLane="best" departSpeed="speedLimit" route="route_8" />
<vehicle id="vehicle_1209" depart="54" departLane="best" departSpeed="speedLimit" route="route_7" />
<vehicle id="vehicle_1210" depart="54" departLane="best" departSpeed="speedLimit" route="route_7" />
<vehicle id="vehicle_1211" depart="58" departLane="best" departSpeed="speedLimit" route="route_7" />
<vehicle id="vehicle_1212" depart="58" departLane="best" departSpeed="speedLimit" route="route_7" />
<vehicle id="vehicle_1213" depart="58" departLane="best" departSpeed="speedLimit" route="route_7" />
<vehicle id="vehicle_1214" depart="60" departLane="best" departSpeed="speedLimit" route="route_7" />
<vehicle id="vehicle_6" depart="62" departLane="best" departSpeed="speedLimit" route="route_1" />
<vehicle id="vehicle_7" depart="62" departLane="best" departSpeed="speedLimit" route="route_1" />
<vehicle id="vehicle_8" depart="63" departLane="best" departSpeed="speedLimit" route="route_1" />
<vehicle id="vehicle_9" depart="63" departLane="best" departSpeed="speedLimit" route="route_1" />
<vehicle id="vehicle_1215" depart="64" departLane="best" departSpeed="speedLimit" route="route_7" />
<vehicle id="vehicle_1216" depart="66" departLane="best" departSpeed="speedLimit" route="route_7" />
<vehicle id="vehicle_10" depart="72" departLane="best" departSpeed="speedLimit" route="route_1" />
<vehicle id="vehicle_11" depart="72" departLane="best" departSpeed="speedLimit" route="route_1" />
<vehicle id="vehicle_12" depart="73" departLane="best" departSpeed="speedLimit" route="route_2" />
<vehicle id="vehicle_13" depart="73" departLane="best" departSpeed="speedLimit" route="route_1" />
<vehicle id="vehicle_14" depart="73" departLane="best" departSpeed="speedLimit" route="route_1" />
<vehicle id="vehicle_15" depart="74" departLane="best" departSpeed="speedLimit" route="route_1" />
<vehicle id="vehicle_16" depart="75" departLane="best" departSpeed="speedLimit" route="route_1" />
<vehicle id="vehicle_1217" depart="76" departLane="best" departSpeed="speedLimit" route="route_8" />
<vehicle id="vehicle_17" depart="78" departLane="best" departSpeed="speedLimit" route="route_1" />
<vehicle id="vehicle_1218" depart="78" departLane="best" departSpeed="speedLimit" route="route_7" />
<vehicle id="vehicle_1219" depart="78" departLane="best" departSpeed="speedLimit" route="route_7" />
<vehicle id="vehicle_18" depart="81" departLane="best" departSpeed="speedLimit" route="route_1" />
<vehicle id="vehicle_19" depart="82" departLane="best" departSpeed="speedLimit" route="route_1" />
<vehicle id="vehicle_20" depart="83" departLane="best" departSpeed="speedLimit" route="route_1" />
<vehicle id="vehicle_21" depart="87" departLane="best" departSpeed="speedLimit" route="route_2" />
<vehicle id="vehicle_22" depart="88" departLane="best" departSpeed="speedLimit" route="route_1" />
<vehicle id="vehicle_23" depart="90" departLane="best" departSpeed="speedLimit" route="route_1" />
<vehicle id="vehicle_24" depart="90" departLane="best" departSpeed="speedLimit" route="route_1" />
<vehicle id="vehicle_25" depart="92" departLane="best" departSpeed="speedLimit" route="route_1" />
<vehicle id="vehicle_26" depart="92" departLane="best" departSpeed="speedLimit" route="route_1" />
<vehicle id="vehicle_27" depart="92" departLane="best" departSpeed="speedLimit" route="route_3" />
<vehicle id="vehicle_1220" depart="92" departLane="best" departSpeed="speedLimit" route="route_6" />
<vehicle id="vehicle_1221" depart="98" departLane="best" departSpeed="speedLimit" route="route_6" />
<vehicle id="vehicle_28" depart="116" departLane="best" departSpeed="speedLimit" route="route_2" />
<vehicle id="vehicle_1222" depart="116" departLane="best" departSpeed="speedLimit" route="route_7" />
<vehicle id="vehicle_1223" depart="116" departLane="best" departSpeed="speedLimit" route="route_7" />
<vehicle id="vehicle_1224" depart="116" departLane="best" departSpeed="speedLimit" route="route_7" />
<vehicle id="vehicle_29" depart="117" departLane="best" departSpeed="speedLimit" route="route_1" />
<vehicle id="vehicle_30" depart="117" departLane="best" departSpeed="speedLimit" route="route_0" />
<vehicle id="vehicle_1225" depart="118" departLane="best" departSpeed="speedLimit" route="route_7" />
<vehicle id="vehicle_1226" depart="118" departLane="best" departSpeed="speedLimit" route="route_7" />
<vehicle id="vehicle_31" depart="119" departLane="best" departSpeed="speedLimit" route="route_1" />
<vehicle id="vehicle_1227" depart="120" departLane="best" departSpeed="speedLimit" route="route_7" />
<vehicle id="vehicle_1228" depart="122" departLane="best" departSpeed="speedLimit" route="route_7" />
<vehicle id="vehicle_1229" depart="122" departLane="best" departSpeed="speedLimit" route="route_7" />
<vehicle id="vehicle_1230" depart="126" departLane="best" departSpeed="speedLimit" route="route_7" />
<vehicle id="vehicle_32" depart="128" departLane="best" departSpeed="speedLimit" route="route_1" />
<vehicle id="vehicle_1231" depart="130" departLane="best" departSpeed="speedLimit" route="route_7" />
<vehicle id="vehicle_35" depart="133" departLane="best" departSpeed="speedLimit" route="route_4" />
<vehicle id="vehicle_33" depart="135" departLane="best" departSpeed="speedLimit" route="route_1" />
<vehicle id="vehicle_1232" depart="136" departLane="best" departSpeed="speedLimit" route="route_7" />
<vehicle id="vehicle_34" depart="137" departLane="best" departSpeed="speedLimit" route="route_9" />
<vehicle id="vehicle_1233" depart="140" departLane="best" departSpeed="speedLimit" route="route_7" />
<vehicle id="vehicle_1234" depart="142" departLane="best" departSpeed="speedLimit" route="route_7" />
<vehicle id="vehicle_1235" depart="142" departLane="best" departSpeed="speedLimit" route="route_7" />
<vehicle id="vehicle_1236" depart="144" departLane="best" departSpeed="speedLimit" route="route_7" />
<vehicle id="vehicle_1237" depart="152" departLane="best" departSpeed="speedLimit" route="route_7" />
<vehicle id="vehicle_51" depart="156" departLane="best" departSpeed="speedLimit" route="route_4" />
<vehicle id="vehicle_36" depart="160" departLane="best" departSpeed="speedLimit" route="route_1" />
<vehicle id="vehicle_52" depart="161" departLane="best" departSpeed="speedLimit" route="route_5" />
<vehicle id="vehicle_37" depart="163" departLane="best" departSpeed="speedLimit" route="route_1" />
<vehicle id="vehicle_1238" depart="166" departLane="best" departSpeed="speedLimit" route="route_7" />
<vehicle id="vehicle_38" depart="167" departLane="best" departSpeed="speedLimit" route="route_1" />
<vehicle id="vehicle_1239" depart="172" departLane="best" departSpeed="speedLimit" route="route_7" />
<vehicle id="vehicle_1240" depart="172" departLane="best" departSpeed="speedLimit" route="route_7" />
<vehicle id="vehicle_1241" depart="174" departLane="best" departSpeed="speedLimit" route="route_7" />
<vehicle id="vehicle_39" depart="179" departLane="best" departSpeed="speedLimit" route="route_1" />
<vehicle id="vehicle_40" depart="180" departLane="best" departSpeed="speedLimit" route="route_1" />
<vehicle id="vehicle_41" depart="181" departLane="best" departSpeed="speedLimit" route="route_1" />
<vehicle id="vehicle_42" depart="183" departLane="best" departSpeed="speedLimit" route="route_1" />
<vehicle id="vehicle_54" depart="185" departLane="best" departSpeed="speedLimit" route="route_11" />
<vehicle id="vehicle_43" depart="186" departLane="best" departSpeed="speedLimit" route="route_1" />
<vehicle id="vehicle_44" depart="187" departLane="best" departSpeed="speedLimit" route="route_1" />
<vehicle id="vehicle_53" depart="189" departLane="best" departSpeed="speedLimit" route="route_3" />
<vehicle id="vehicle_45" depart="194" departLane="best" departSpeed="speedLimit" route="route_0" />
<vehicle id="vehicle_46" depart="196" departLane="best" departSpeed="speedLimit" route="route_1" />
<vehicle id="vehicle_47" depart="196" departLane="best" departSpeed="speedLimit" route="route_1" />
<vehicle id="vehicle_1242" depart="200" departLane="best" departSpeed="speedLimit" route="route_7" />
<vehicle id="vehicle_48" depart="202" departLane="best" departSpeed="speedLimit" route="route_1" />
<vehicle id="vehicle_49" depart="205" departLane="best" departSpeed="speedLimit" route="route_2" />
<vehicle id="vehicle_50" depart="206" departLane="best" departSpeed="speedLimit" route="route_1" />
<vehicle id="vehicle_1243" depart="210" departLane="best" departSpeed="speedLimit" route="route_7" />
<vehicle id="vehicle_55" depart="214" departLane="best" departSpeed="speedLimit" route="route_5" />
<vehicle id="vehicle_57" depart="215" departLane="best" departSpeed="speedLimit" route="route_1" />
<vehicle id="vehicle_56" depart="218" departLane="best" departSpeed="speedLimit" route="route_11" />
<vehicle id="vehicle_58" depart="224" departLane="best" departSpeed="speedLimit" route="route_5" />
<vehicle id="vehicle_59" depart="224" departLane="best" departSpeed="speedLimit" route="route_5" />
<vehicle id="vehicle_60" depart="232" departLane="best" departSpeed="speedLimit" route="route_4" />
<vehicle id="vehicle_62" depart="236" departLane="best" departSpeed="speedLimit" route="route_0" />
<vehicle id="vehicle_1244" depart="236" departLane="best" departSpeed="speedLimit" route="route_7" />
<vehicle id="vehicle_63" depart="237" departLane="best" departSpeed="speedLimit" route="route_1" />
<vehicle id="vehicle_64" depart="238" departLane="best" departSpeed="speedLimit" route="route_1" />
<vehicle id="vehicle_65" depart="239" departLane="best" departSpeed="speedLimit" route="route_0" />
<vehicle id="vehicle_66" depart="240" departLane="best" departSpeed="speedLimit" route="route_1" />
<vehicle id="vehicle_61" depart="241" departLane="best" departSpeed="speedLimit" route="route_3" />
<vehicle id="vehicle_1245" depart="242" departLane="best" departSpeed="speedLimit" route="route_7" />
<vehicle id="vehicle_1246" depart="242" departLane="best" departSpeed="speedLimit" route="route_7" />
<vehicle id="vehicle_1247" depart="246" departLane="best" departSpeed="speedLimit" route="route_7" />
<vehicle id="vehicle_67" depart="248" departLane="best" departSpeed="speedLimit" route="route_2" />
<vehicle id="vehicle_1248" depart="248" departLane="best" departSpeed="speedLimit" route="route_7" />
<vehicle id="vehicle_1249" depart="248" departLane="best" departSpeed="speedLimit" route="route_7" />
<vehicle id="vehicle_1250" depart="250" departLane="best" departSpeed="speedLimit" route="route_7" />
<vehicle id="vehicle_68" depart="251" departLane="best" departSpeed="speedLimit" route="route_3" />
<vehicle id="vehicle_72" depart="252" departLane="best" departSpeed="speedLimit" route="route_3" />
<vehicle id="vehicle_1251" depart="252" departLane="best" departSpeed="speedLimit" route="route_7" />
<vehicle id="vehicle_1252" depart="254" departLane="best" departSpeed="speedLimit" route="route_7" />
<vehicle id="vehicle_1253" depart="254" departLane="best" departSpeed="speedLimit" route="route_7" />
<vehicle id="vehicle_73" depart="256" departLane="best" departSpeed="speedLimit" route="route_5" />
<vehicle id="vehicle_78" depart="256" departLane="best" departSpeed="speedLimit" route="route_9" />
<vehicle id="vehicle_1254" depart="256" departLane="best" departSpeed="speedLimit" route="route_7" />
<vehicle id="vehicle_69" depart="257" departLane="best" departSpeed="speedLimit" route="route_1" />
<vehicle id="vehicle_70" depart="258" departLane="best" departSpeed="speedLimit" route="route_1" />
<vehicle id="vehicle_1255" depart="258" departLane="best" departSpeed="speedLimit" route="route_7" />
<vehicle id="vehicle_71" depart="259" departLane="best" departSpeed="speedLimit" route="route_2" />
<vehicle id="vehicle_1256" depart="260" departLane="best" departSpeed="speedLimit" route="route_7" />
<vehicle id="vehicle_1257" depart="260" departLane="best" departSpeed="speedLimit" route="route_7" />
<vehicle id="vehicle_1258" depart="260" departLane="best" departSpeed="speedLimit" route="route_7" />
<vehicle id="vehicle_76" depart="261" departLane="best" departSpeed="speedLimit" route="route_1" />
<vehicle id="vehicle_79" depart="262" departLane="best" departSpeed="speedLimit" route="route_11" />
<vehicle id="vehicle_74" depart="263" departLane="best" departSpeed="speedLimit" route="route_3" />
<vehicle id="vehicle_75" depart="268" departLane="best" departSpeed="speedLimit" route="route_5" />
<vehicle id="vehicle_1259" depart="268" departLane="best" departSpeed="speedLimit" route="route_7" />
<vehicle id="vehicle_82" depart="269" departLane="best" departSpeed="speedLimit" route="route_4" />
<vehicle id="vehicle_83" depart="269" departLane="best" departSpeed="speedLimit" route="route_4" />
<vehicle id="vehicle_84" depart="269" departLane="best" departSpeed="speedLimit" route="route_3" />
<vehicle id="vehicle_77" depart="271" departLane="best" departSpeed="speedLimit" route="route_2" />
<vehicle id="vehicle_80" depart="271" departLane="best" departSpeed="speedLimit" route="route_9" />
<vehicle id="vehicle_1260" depart="272" departLane="best" departSpeed="speedLimit" route="route_7" />
<vehicle id="vehicle_81" depart="273" departLane="best" departSpeed="speedLimit" route="route_11" />
<vehicle id="vehicle_1261" depart="276" departLane="best" departSpeed="speedLimit" route="route_8" />
<vehicle id="vehicle_1262" depart="276" departLane="best" departSpeed="speedLimit" route="route_7" />
<vehicle id="vehicle_1263" depart="278" departLane="best" departSpeed="speedLimit" route="route_7" />
<vehicle id="vehicle_1264" depart="278" departLane="best" departSpeed="speedLimit" route="route_8" />
<vehicle id="vehicle_1265" depart="280" departLane="best" departSpeed="speedLimit" route="route_8" />
<vehicle id="vehicle_85" depart="287" departLane="best" departSpeed="speedLimit" route="route_5" />
<vehicle id="vehicle_1266" depart="288" departLane="best" departSpeed="speedLimit" route="route_7" />
<vehicle id="vehicle_1267" depart="294" departLane="best" departSpeed="speedLimit" route="route_7" />
<vehicle id="vehicle_86" depart="295" departLane="best" departSpeed="speedLimit" route="route_1" />
<vehicle id="vehicle_1268" depart="296" departLane="best" departSpeed="speedLimit" route="route_7" />
<vehicle id="vehicle_87" depart="299" departLane="best" departSpeed="speedLimit" route="route_3" />
<vehicle id="vehicle_88" depart="305" departLane="best" departSpeed="speedLimit" route="route_1" />
<vehicle id="vehicle_1269" depart="310" departLane="best" departSpeed="speedLimit" route="route_7" />
<vehicle id="vehicle_89" depart="312" departLane="best" departSpeed="speedLimit" route="route_1" />
<vehicle id="vehicle_90" depart="313" departLane="best" departSpeed="speedLimit" route="route_1" />
<vehicle id="vehicle_91" depart="320" departLane="best" departSpeed="speedLimit" route="route_1" />
<vehicle id="vehicle_115" depart="321" departLane="best" departSpeed="speedLimit" route="route_5" />
<vehicle id="vehicle_116" depart="321" departLane="best" departSpeed="speedLimit" route="route_10" />
<vehicle id="vehicle_117" depart="323" departLane="best" departSpeed="speedLimit" route="route_9" />
<vehicle id="vehicle_92" depart="324" departLane="best" departSpeed="speedLimit" route="route_1" />
<vehicle id="vehicle_93" depart="327" departLane="best" departSpeed="speedLimit" route="route_1" />
<vehicle id="vehicle_1270" depart="330" departLane="best" departSpeed="speedLimit" route="route_7" />
<vehicle id="vehicle_1271" depart="330" departLane="best" departSpeed="speedLimit" route="route_7" />
<vehicle id="vehicle_1272" depart="330" departLane="best" departSpeed="speedLimit" route="route_7" />
<vehicle id="vehicle_118" depart="331" departLane="best" departSpeed="speedLimit" route="route_9" />
<vehicle id="vehicle_1273" depart="332" departLane="best" departSpeed="speedLimit" route="route_7" />
<vehicle id="vehicle_94" depart="333" departLane="best" departSpeed="speedLimit" route="route_1" />
<vehicle id="vehicle_120" depart="336" departLane="best" departSpeed="speedLimit" route="route_5" />
<vehicle id="vehicle_121" depart="336" departLane="best" departSpeed="speedLimit" route="route_3" />
<vehicle id="vehicle_1274" depart="336" departLane="best" departSpeed="speedLimit" route="route_7" />
<vehicle id="vehicle_1275" depart="336" departLane="best" departSpeed="speedLimit" route="route_7" />
<vehicle id="vehicle_95" depart="337" departLane="best" departSpeed="speedLimit" route="route_1" />
<vehicle id="vehicle_96" depart="337" departLane="best" departSpeed="speedLimit" route="route_1" />
<vehicle id="vehicle_97" depart="337" departLane="best" departSpeed="speedLimit" route="route_1" />
<vehicle id="vehicle_98" depart="339" departLane="best" departSpeed="speedLimit" route="route_1" />
<vehicle id="vehicle_1276" depart="340" departLane="best" departSpeed="speedLimit" route="route_7" />
<vehicle id="vehicle_99" depart="341" departLane="best" departSpeed="speedLimit" route="route_1" />
<vehicle id="vehicle_100" depart="341" departLane="best" departSpeed="speedLimit" route="route_1" />
<vehicle id="vehicle_1277" depart="342" departLane="best" departSpeed="speedLimit" route="route_7" />
<vehicle id="vehicle_101" depart="343" departLane="best" departSpeed="speedLimit" route="route_1" />
<vehicle id="vehicle_102" depart="343" departLane="best" departSpeed="speedLimit" route="route_1" />
<vehicle id="vehicle_103" depart="344" departLane="best" departSpeed="speedLimit" route="route_1" />
<vehicle id="vehicle_1278" depart="344" departLane="best" departSpeed="speedLimit" route="route_7" />
<vehicle id="vehicle_1279" depart="344" departLane="best" departSpeed="speedLimit" route="route_7" />
<vehicle id="vehicle_104" depart="345" departLane="best" departSpeed="speedLimit" route="route_1" />
<vehicle id="vehicle_105" depart="345" departLane="best" departSpeed="speedLimit" route="route_1" />
<vehicle id="vehicle_106" depart="346" departLane="best" departSpeed="speedLimit" route="route_1" />
<vehicle id="vehicle_1280" depart="346" departLane="best" departSpeed="speedLimit" route="route_7" />
<vehicle id="vehicle_107" depart="347" departLane="best" departSpeed="speedLimit" route="route_1" />
<vehicle id="vehicle_108" depart="347" departLane="best" departSpeed="speedLimit" route="route_1" />
<vehicle id="vehicle_109" depart="348" departLane="best" departSpeed="speedLimit" route="route_1" />
<vehicle id="vehicle_110" depart="348" departLane="best" departSpeed="speedLimit" route="route_1" />
<vehicle id="vehicle_1281" depart="348" departLane="best" departSpeed="speedLimit" route="route_7" />
<vehicle id="vehicle_1282" depart="348" departLane="best" departSpeed="speedLimit" route="route_7" />
<vehicle id="vehicle_119" depart="349" departLane="best" departSpeed="speedLimit" route="route_9" />
<vehicle id="vehicle_111" depart="350" departLane="best" departSpeed="speedLimit" route="route_1" />
<vehicle id="vehicle_1283" depart="350" departLane="best" departSpeed="speedLimit" route="route_7" />
<vehicle id="vehicle_1284" depart="350" departLane="best" departSpeed="speedLimit" route="route_7" />
<vehicle id="vehicle_112" depart="352" departLane="best" departSpeed="speedLimit" route="route_1" />
<vehicle id="vehicle_1285" depart="354" departLane="best" departSpeed="speedLimit" route="route_7" />
<vehicle id="vehicle_122" depart="355" departLane="best" departSpeed="speedLimit" route="route_4" />
<vehicle id="vehicle_113" depart="356" departLane="best" departSpeed="speedLimit" route="route_1" />
<vehicle id="vehicle_1286" depart="356" departLane="best" departSpeed="speedLimit" route="route_7" />
<vehicle id="vehicle_1287" depart="356" departLane="best" departSpeed="speedLimit" route="route_7" />
<vehicle id="vehicle_114" depart="358" departLane="best" departSpeed="speedLimit" route="route_2" />
<vehicle id="vehicle_1288" depart="360" departLane="best" departSpeed="speedLimit" route="route_7" />
<vehicle id="vehicle_1289" depart="360" departLane="best" departSpeed="speedLimit" route="route_7" />
<vehicle id="vehicle_1290" depart="362" departLane="best" departSpeed="speedLimit" route="route_7" />
<vehicle id="vehicle_1291" depart="362" departLane="best" departSpeed="speedLimit" route="route_7" />
<vehicle id="vehicle_1292" depart="364" departLane="best" departSpeed="speedLimit" route="route_7" />
<vehicle id="vehicle_1293" depart="364" departLane="best" departSpeed="speedLimit" route="route_7" />
<vehicle id="vehicle_1294" depart="374" departLane="best" departSpeed="speedLimit" route="route_7" />
<vehicle id="vehicle_1295" depart="380" departLane="best" departSpeed="speedLimit" route="route_7" />
<vehicle id="vehicle_1296" depart="380" departLane="best" departSpeed="speedLimit" route="route_7" />
<vehicle id="vehicle_123" depart="384" departLane="best" departSpeed="speedLimit" route="route_4" />
<vehicle id="vehicle_1297" depart="386" departLane="best" departSpeed="speedLimit" route="route_8" />
<vehicle id="vehicle_124" depart="387" departLane="best" departSpeed="speedLimit" route="route_3" />
<vehicle id="vehicle_128" depart="387" departLane="best" departSpeed="speedLimit" route="route_1" />
<vehicle id="vehicle_129" depart="388" departLane="best" departSpeed="speedLimit" route="route_1" />
<vehicle id="vehicle_1298" depart="388" departLane="best" departSpeed="speedLimit" route="route_8" />
<vehicle id="vehicle_130" depart="389" departLane="best" departSpeed="speedLimit" route="route_1" />
<vehicle id="vehicle_131" depart="390" departLane="best" departSpeed="speedLimit" route="route_1" />
<vehicle id="vehicle_125" depart="391" departLane="best" departSpeed="speedLimit" route="route_9" />
<vehicle id="vehicle_132" depart="391" departLane="best" departSpeed="speedLimit" route="route_1" />
<vehicle id="vehicle_1299" depart="392" departLane="best" departSpeed="speedLimit" route="route_7" />
<vehicle id="vehicle_1300" depart="394" departLane="best" departSpeed="speedLimit" route="route_7" />
<vehicle id="vehicle_133" depart="395" departLane="best" departSpeed="speedLimit" route="route_1" />
<vehicle id="vehicle_1301" depart="396" departLane="best" departSpeed="speedLimit" route="route_6" />
<vehicle id="vehicle_126" depart="398" departLane="best" departSpeed="speedLimit" route="route_3" />
<vehicle id="vehicle_127" depart="404" departLane="best" departSpeed="speedLimit" route="route_9" />
<vehicle id="vehicle_1302" depart="404" departLane="best" departSpeed="speedLimit" route="route_7" />
<vehicle id="vehicle_1303" depart="404" departLane="best" departSpeed="speedLimit" route="route_7" />
<vehicle id="vehicle_1304" depart="406" departLane="best" departSpeed="speedLimit" route="route_7" />
<vehicle id="vehicle_140" depart="408" departLane="best" departSpeed="speedLimit" route="route_9" />
<vehicle id="vehicle_1305" depart="408" departLane="best" departSpeed="speedLimit" route="route_7" />
<vehicle id="vehicle_134" depart="415" departLane="best" departSpeed="speedLimit" route="route_1" />
<vehicle id="vehicle_135" depart="416" departLane="best" departSpeed="speedLimit" route="route_1" />
<vehicle id="vehicle_136" depart="417" departLane="best" departSpeed="speedLimit" route="route_1" />
<vehicle id="vehicle_137" depart="418" departLane="best" departSpeed="speedLimit" route="route_1" />
<vehicle id="vehicle_138" depart="418" departLane="best" departSpeed="speedLimit" route="route_1" />
<vehicle id="vehicle_139" depart="421" departLane="best" departSpeed="speedLimit" route="route_5" />
<vehicle id="vehicle_1306" depart="422" departLane="best" departSpeed="speedLimit" route="route_7" />
<vehicle id="vehicle_1307" depart="422" departLane="best" departSpeed="speedLimit" route="route_7" />
<vehicle id="vehicle_142" depart="423" departLane="best" departSpeed="speedLimit" route="route_9" />
<vehicle id="vehicle_1308" depart="424" departLane="best" departSpeed="speedLimit" route="route_7" />
<vehicle id="vehicle_1309" depart="424" departLane="best" departSpeed="speedLimit" route="route_7" />
<vehicle id="vehicle_141" depart="427" departLane="best" departSpeed="speedLimit" route="route_1" />
<vehicle id="vehicle_143" depart="428" departLane="best" departSpeed="speedLimit" route="route_3" />
<vehicle id="vehicle_144" depart="435" departLane="best" departSpeed="speedLimit" route="route_11" />
<vehicle id="vehicle_145" depart="436" departLane="best" departSpeed="speedLimit" route="route_9" />
<vehicle id="vehicle_146" depart="438" departLane="best" departSpeed="speedLimit" route="route_11" />
<vehicle id="vehicle_147" depart="442" departLane="best" departSpeed="speedLimit" route="route_5" />
<vehicle id="vehicle_1310" depart="452" departLane="best" departSpeed="speedLimit" route="route_7" />
<vehicle id="vehicle_148" depart="453" departLane="best" departSpeed="speedLimit" route="route_1" />
<vehicle id="vehicle_149" depart="454" departLane="best" departSpeed="speedLimit" route="route_11" />
<vehicle id="vehicle_150" depart="459" departLane="best" departSpeed="speedLimit" route="route_3" />
<vehicle id="vehicle_1311" depart="462" departLane="best" departSpeed="speedLimit" route="route_7" />
<vehicle id="vehicle_1312" depart="464" departLane="best" departSpeed="speedLimit" route="route_7" />
<vehicle id="vehicle_153" depart="467" departLane="best" departSpeed="speedLimit" route="route_3" />
<vehicle id="vehicle_151" depart="468" departLane="best" departSpeed="speedLimit" route="route_2" />
<vehicle id="vehicle_1313" depart="468" departLane="best" departSpeed="speedLimit" route="route_7" />
<vehicle id="vehicle_1314" depart="468" departLane="best" departSpeed="speedLimit" route="route_7" />
<vehicle id="vehicle_152" depart="470" departLane="best" departSpeed="speedLimit" route="route_1" />
<vehicle id="vehicle_1315" depart="470" departLane="best" departSpeed="speedLimit" route="route_7" />
<vehicle id="vehicle_1316" depart="472" departLane="best" departSpeed="speedLimit" route="route_7" />
<vehicle id="vehicle_1317" depart="472" departLane="best" departSpeed="speedLimit" route="route_7" />
<vehicle id="vehicle_1318" depart="476" departLane="best" departSpeed="speedLimit" route="route_7" />
<vehicle id="vehicle_154" depart="479" departLane="best" departSpeed="speedLimit" route="route_1" />
<vehicle id="vehicle_155" depart="480" departLane="best" departSpeed="speedLimit" route="route_1" />
<vehicle id="vehicle_156" depart="486" departLane="best" departSpeed="speedLimit" route="route_1" />
<vehicle id="vehicle_157" depart="487" departLane="best" departSpeed="speedLimit" route="route_1" />