<?xml version="1.0" encoding="UTF-8"?>

<routes>
    <vType id="typeNS" length="7.00" minGap="3.00" maxSpeed="25.00" guiShape="bus" accel="0.8" decel="4.5" sigma="0.5"/>
    <vType id="typeWE" length="5.00" minGap="2.50" maxSpeed="16.67" guiShape="passenger" accel="0.8" decel="4.5" sigma="0.5"/>
    <route edges="-gneE7 gneE5" color="yellow" id="route_0"/>
    <route edges="-gneE7 gneE6" color="yellow" id="route_1"/>
    <route edges="-gneE4 gneE5" color="yellow" id="route_10"/>
    <route edges="-gneE4 gneE6" color="yellow" id="route_11"/>
    <route edges="-gneE7 gneE4" color="yellow" id="route_2"/>
    <route edges="-gneE5 gneE6" color="yellow" id="route_3"/>
    <route edges="-gneE5 gneE4" color="yellow" id="route_4"/>
    <route edges="-gneE5 gneE7" color="yellow" id="route_5"/>
    <route edges="-gneE6 gneE4" color="yellow" id="route_6"/>
    <route edges="-gneE6 gneE7" color="yellow" id="route_7"/>
    <route edges="-gneE6 gneE5" color="yellow" id="route_8"/>
    <route edges="-gneE4 gneE7" color="yellow" id="route_9"/>
    <vehicle id="vehicle_1" depart="4" departLane="best" departSpeed="speedLimit" route="route_1" />
    <vehicle id="vehicle_2" depart="4" departLane="best" departSpeed="speedLimit" route="route_1" />
    <vehicle id="vehicle_3" depart="5" departLane="best" departSpeed="speedLimit" route="route_1" />
    <vehicle id="vehicle_4" depart="6" departLane="best" departSpeed="speedLimit" route="route_1" />
    <vehicle id="vehicle_5" depart="6" departLane="best" departSpeed="speedLimit" route="route_1" />
    <vehicle id="vehicle_1500" depart="6" departLane="best" departSpeed="speedLimit" route="route_7" />
    <vehicle id="vehicle_6" depart="7" departLane="best" departSpeed="speedLimit" route="route_1" />
    <vehicle id="vehicle_7" depart="7" departLane="best" departSpeed="speedLimit" route="route_1" />
    <vehicle id="vehicle_8" depart="8" departLane="best" departSpeed="speedLimit" route="route_1" />
    <vehicle id="vehicle_9" depart="8" departLane="best" departSpeed="speedLimit" route="route_1" />
    <vehicle id="vehicle_0" depart="9" departLane="best" departSpeed="speedLimit" route="route_3" />
    <vehicle id="vehicle_1501" depart="16" departLane="best" departSpeed="speedLimit" route="route_7" />
    <vehicle id="vehicle_1502" depart="16" departLane="best" departSpeed="speedLimit" route="route_7" />
    <vehicle id="vehicle_1503" depart="16" departLane="best" departSpeed="speedLimit" route="route_7" />
    <vehicle id="vehicle_10" depart="22" departLane="best" departSpeed="speedLimit" route="route_2" />
    <vehicle id="vehicle_1504" depart="22" departLane="best" departSpeed="speedLimit" route="route_7" />
    <vehicle id="vehicle_11" depart="23" departLane="best" departSpeed="speedLimit" route="route_1" />
    <vehicle id="vehicle_12" depart="23" departLane="best" departSpeed="speedLimit" route="route_1" />
    <vehicle id="vehicle_13" depart="24" departLane="best" departSpeed="speedLimit" route="route_2" />
    <vehicle id="vehicle_1505" depart="28" departLane="best" departSpeed="speedLimit" route="route_7" />
    <vehicle id="vehicle_14" depart="29" departLane="best" departSpeed="speedLimit" route="route_1" />
    <vehicle id="vehicle_1506" depart="30" departLane="best" departSpeed="speedLimit" route="route_7" />
    <vehicle id="vehicle_15" depart="31" departLane="best" departSpeed="speedLimit" route="route_1" />
    <vehicle id="vehicle_16" depart="32" departLane="best" departSpeed="speedLimit" route="route_3" />
    <vehicle id="vehicle_1507" depart="32" departLane="best" departSpeed="speedLimit" route="route_7" />
    <vehicle id="vehicle_1508" depart="36" departLane="best" departSpeed="speedLimit" route="route_7" />
    <vehicle id="vehicle_1509" depart="36" departLane="best" departSpeed="speedLimit" route="route_7" />
    <vehicle id="vehicle_1510" depart="38" departLane="best" departSpeed="speedLimit" route="route_7" />
    <vehicle id="vehicle_1511" depart="38" departLane="best" departSpeed="speedLimit" route="route_7" />
    <vehicle id="vehicle_1512" depart="40" departLane="best" departSpeed="speedLimit" route="route_7" />
    <vehicle id="vehicle_1513" depart="40" departLane="best" departSpeed="speedLimit" route="route_7" />
    <vehicle id="vehicle_1514" depart="42" departLane="best" departSpeed="speedLimit" route="route_7" />
    <vehicle id="vehicle_1515" depart="44" departLane="best" departSpeed="speedLimit" route="route_7" />
    <vehicle id="vehicle_1516" depart="44" departLane="best" departSpeed="speedLimit" route="route_7" />
    <vehicle id="vehicle_1517" depart="48" departLane="best" departSpeed="speedLimit" route="route_7" />
    <vehicle id="vehicle_17" depart="49" departLane="best" departSpeed="speedLimit" route="route_1" />
    <vehicle id="vehicle_1518" depart="52" departLane="best" departSpeed="speedLimit" route="route_7" />
    <vehicle id="vehicle_1519" depart="52" departLane="best" departSpeed="speedLimit" route="route_7" />
    <vehicle id="vehicle_1520" depart="54" departLane="best" departSpeed="speedLimit" route="route_7" />
    <vehicle id="vehicle_1521" depart="54" departLane="best" departSpeed="speedLimit" route="route_7" />
    <vehicle id="vehicle_25" depart="58" departLane="best" departSpeed="speedLimit" route="route_5" />
    <vehicle id="vehicle_1522" depart="58" departLane="best" departSpeed="speedLimit" route="route_7" />
    <vehicle id="vehicle_26" depart="60" departLane="best" departSpeed="speedLimit" route="route_3" />
    <vehicle id="vehicle_18" depart="62" departLane="best" departSpeed="speedLimit" route="route_1" />
    <vehicle id="vehicle_19" depart="63" departLane="best" departSpeed="speedLimit" route="route_1" />
    <vehicle id="vehicle_20" depart="64" departLane="best" departSpeed="speedLimit" route="route_1" />
    <vehicle id="vehicle_1523" depart="66" departLane="best" departSpeed="speedLimit" route="route_7" />
    <vehicle id="vehicle_21" depart="67" departLane="best" departSpeed="speedLimit" route="route_1" />
    <vehicle id="vehicle_22" depart="68" departLane="best" departSpeed="speedLimit" route="route_1" />
    <vehicle id="vehicle_23" depart="68" departLane="best" departSpeed="speedLimit" route="route_1" />
    <vehicle id="vehicle_48" depart="69" departLane="best" departSpeed="speedLimit" route="route_11" />
    <vehicle id="vehicle_24" depart="70" departLane="best" departSpeed="speedLimit" route="route_1" />
    <vehicle id="vehicle_1524" depart="74" departLane="best" departSpeed="speedLimit" route="route_7" />
    <vehicle id="vehicle_45" depart="75" departLane="best" departSpeed="speedLimit" route="route_3" />
    <vehicle id="vehicle_1525" depart="76" departLane="best" departSpeed="speedLimit" route="route_7" />
    <vehicle id="vehicle_27" depart="77" departLane="best" departSpeed="speedLimit" route="route_1" />
    <vehicle id="vehicle_28" depart="78" departLane="best" departSpeed="speedLimit" route="route_1" />
    <vehicle id="vehicle_29" depart="78" departLane="best" departSpeed="speedLimit" route="route_1" />
    <vehicle id="vehicle_1526" depart="78" departLane="best" departSpeed="speedLimit" route="route_7" />
    <vehicle id="vehicle_30" depart="79" departLane="best" departSpeed="speedLimit" route="route_1" />
    <vehicle id="vehicle_31" depart="80" departLane="best" departSpeed="speedLimit" route="route_1" />
    <vehicle id="vehicle_32" depart="81" departLane="best" departSpeed="speedLimit" route="route_1" />
    <vehicle id="vehicle_33" depart="84" departLane="best" departSpeed="speedLimit" route="route_1" />
    <vehicle id="vehicle_1527" depart="84" departLane="best" departSpeed="speedLimit" route="route_7" />
    <vehicle id="vehicle_34" depart="85" departLane="best" departSpeed="speedLimit" route="route_1" />
    <vehicle id="vehicle_35" depart="86" departLane="best" departSpeed="speedLimit" route="route_1" />
    <vehicle id="vehicle_78" depart="87" departLane="best" departSpeed="speedLimit" route="route_10" />
    <vehicle id="vehicle_36" depart="88" departLane="best" departSpeed="speedLimit" route="route_1" />
    <vehicle id="vehicle_37" depart="89" departLane="best" departSpeed="speedLimit" route="route_1" />
    <vehicle id="vehicle_38" depart="89" departLane="best" departSpeed="speedLimit" route="route_1" />
    <vehicle id="vehicle_39" depart="90" departLane="best" departSpeed="speedLimit" route="route_1" />
    <vehicle id="vehicle_40" depart="91" departLane="best" departSpeed="speedLimit" route="route_1" />
    <vehicle id="vehicle_1528" depart="92" departLane="best" departSpeed="speedLimit" route="route_8" />
    <vehicle id="vehicle_41" depart="95" departLane="best" departSpeed="speedLimit" route="route_2" />
    <vehicle id="vehicle_42" depart="96" departLane="best" departSpeed="speedLimit" route="route_1" />
    <vehicle id="vehicle_43" depart="96" departLane="best" departSpeed="speedLimit" route="route_1" />
    <vehicle id="vehicle_44" depart="97" departLane="best" departSpeed="speedLimit" route="route_1" />
    <vehicle id="vehicle_46" depart="100" departLane="best" departSpeed="speedLimit" route="route_5" />
    <vehicle id="vehicle_47" depart="101" departLane="best" departSpeed="speedLimit" route="route_3" />
    <vehicle id="vehicle_50" depart="112" departLane="best" departSpeed="speedLimit" route="route_1" />
    <vehicle id="vehicle_51" depart="112" departLane="best" departSpeed="speedLimit" route="route_1" />
    <vehicle id="vehicle_52" depart="113" departLane="best" departSpeed="speedLimit" route="route_1" />
    <vehicle id="vehicle_53" depart="113" departLane="best" departSpeed="speedLimit" route="route_1" />
    <vehicle id="vehicle_54" depart="114" departLane="best" departSpeed="speedLimit" route="route_1" />
    <vehicle id="vehicle_79" depart="114" departLane="best" departSpeed="speedLimit" route="route_10" />
    <vehicle id="vehicle_55" depart="116" departLane="best" departSpeed="speedLimit" route="route_1" />
    <vehicle id="vehicle_56" depart="117" departLane="best" departSpeed="speedLimit" route="route_1" />
    <vehicle id="vehicle_57" depart="117" departLane="best" departSpeed="speedLimit" route="route_1" />
    <vehicle id="vehicle_58" depart="118" departLane="best" departSpeed="speedLimit" route="route_1" />
    <vehicle id="vehicle_59" depart="118" departLane="best" departSpeed="speedLimit" route="route_1" />
    <vehicle id="vehicle_60" depart="119" departLane="best" departSpeed="speedLimit" route="route_1" />
    <vehicle id="vehicle_61" depart="120" departLane="best" departSpeed="speedLimit" route="route_1" />
    <vehicle id="vehicle_1529" depart="122" departLane="best" departSpeed="speedLimit" route="route_7" />
    <vehicle id="vehicle_49" depart="124" departLane="best" departSpeed="speedLimit" route="route_3" />
    <vehicle id="vehicle_1530" depart="124" departLane="best" departSpeed="speedLimit" route="route_7" />
    <vehicle id="vehicle_62" depart="126" departLane="best" departSpeed="speedLimit" route="route_1" />
    <vehicle id="vehicle_63" depart="128" departLane="best" departSpeed="speedLimit" route="route_1" />
    <vehicle id="vehicle_64" depart="129" departLane="best" departSpeed="speedLimit" route="route_1" />
    <vehicle id="vehicle_65" depart="130" departLane="best" departSpeed="speedLimit" route="route_1" />
    <vehicle id="vehicle_66" depart="131" departLane="best" departSpeed="speedLimit" route="route_1" />
    <vehicle id="vehicle_67" depart="132" departLane="best" departSpeed="speedLimit" route="route_1" />
    <vehicle id="vehicle_1531" depart="140" departLane="best" departSpeed="speedLimit" route="route_7" />
    <vehicle id="vehicle_1532" depart="142" departLane="best" departSpeed="speedLimit" route="route_8" />
    <vehicle id="vehicle_1533" depart="144" departLane="best" departSpeed="speedLimit" route="route_7" />
    <vehicle id="vehicle_1534" depart="146" departLane="best" departSpeed="speedLimit" route="route_7" />
    <vehicle id="vehicle_1535" depart="148" departLane="best" departSpeed="speedLimit" route="route_8" />
    <vehicle id="vehicle_1536" depart="150" departLane="best" departSpeed="speedLimit" route="route_7" />
    <vehicle id="vehicle_1537" depart="150" departLane="best" departSpeed="speedLimit" route="route_7" />
    <vehicle id="vehicle_1538" depart="152" departLane="best" departSpeed="speedLimit" route="route_7" />
    <vehicle id="vehicle_1539" depart="154" departLane="best" departSpeed="speedLimit" route="route_7" />
    <vehicle id="vehicle_68" depart="158" departLane="best" departSpeed="speedLimit" route="route_1" />
    <vehicle id="vehicle_1540" depart="158" departLane="best" departSpeed="speedLimit" route="route_7" />
    <vehicle id="vehicle_1541" depart="160" departLane="best" departSpeed="speedLimit" route="route_7" />
    <vehicle id="vehicle_69" depart="161" departLane="best" departSpeed="speedLimit" route="route_3" />
    <vehicle id="vehicle_70" depart="162" departLane="best" departSpeed="speedLimit" route="route_1" />
    <vehicle id="vehicle_1542" depart="162" departLane="best" departSpeed="speedLimit" route="route_7" />
    <vehicle id="vehicle_1543" depart="162" departLane="best" departSpeed="speedLimit" route="route_7" />
    <vehicle id="vehicle_80" depart="164" departLane="best" departSpeed="speedLimit" route="route_9" />
    <vehicle id="vehicle_81" depart="164" departLane="best" departSpeed="speedLimit" route="route_10" />
    <vehicle id="vehicle_1544" depart="164" departLane="best" departSpeed="speedLimit" route="route_7" />
    <vehicle id="vehicle_1545" depart="164" departLane="best" departSpeed="speedLimit" route="route_7" />
    <vehicle id="vehicle_147" depart="166" departLane="best" departSpeed="speedLimit" route="route_10" />
    <vehicle id="vehicle_1546" depart="166" departLane="best" departSpeed="speedLimit" route="route_7" />
    <vehicle id="vehicle_1547" depart="168" departLane="best" departSpeed="speedLimit" route="route_7" />
    <vehicle id="vehicle_1548" depart="168" departLane="best" departSpeed="speedLimit" route="route_7" />
    <vehicle id="vehicle_82" depart="170" departLane="best" departSpeed="speedLimit" route="route_5" />
    <vehicle id="vehicle_1549" depart="170" departLane="best" departSpeed="speedLimit" route="route_7" />
    <vehicle id="vehicle_1550" depart="170" departLane="best" departSpeed="speedLimit" route="route_6" />
    <vehicle id="vehicle_83" depart="171" departLane="best" departSpeed="speedLimit" route="route_3" />
    <vehicle id="vehicle_71" depart="174" departLane="best" departSpeed="speedLimit" route="route_1" />
    <vehicle id="vehicle_72" depart="176" departLane="best" departSpeed="speedLimit" route="route_1" />
    <vehicle id="vehicle_1551" depart="176" departLane="best" departSpeed="speedLimit" route="route_7" />
    <vehicle id="vehicle_1552" depart="178" departLane="best" departSpeed="speedLimit" route="route_7" />
    <vehicle id="vehicle_73" depart="180" departLane="best" departSpeed="speedLimit" route="route_1" />
    <vehicle id="vehicle_148" depart="181" departLane="best" departSpeed="speedLimit" route="route_10" />
    <vehicle id="vehicle_74" depart="185" departLane="best" departSpeed="speedLimit" route="route_1" />
    <vehicle id="vehicle_1553" depart="188" departLane="best" departSpeed="speedLimit" route="route_7" />
    <vehicle id="vehicle_75" depart="190" departLane="best" departSpeed="speedLimit" route="route_1" />
    <vehicle id="vehicle_84" depart="190" departLane="best" departSpeed="speedLimit" route="route_5" />
    <vehicle id="vehicle_76" depart="192" departLane="best" departSpeed="speedLimit" route="route_1" />
    <vehicle id="vehicle_1554" depart="194" departLane="best" departSpeed="speedLimit" route="route_8" />
    <vehicle id="vehicle_77" depart="197" departLane="best" departSpeed="speedLimit" route="route_1" />
    <vehicle id="vehicle_1555" depart="198" departLane="best" departSpeed="speedLimit" route="route_7" />
    <vehicle id="vehicle_149" depart="203" departLane="best" departSpeed="speedLimit" route="route_10" />
    <vehicle id="vehicle_85" depart="205" departLane="best" departSpeed="speedLimit" route="route_5" />
    <vehicle id="vehicle_150" depart="209" departLane="best" departSpeed="speedLimit" route="route_10" />
    <vehicle id="vehicle_151" depart="210" departLane="best" departSpeed="speedLimit" route="route_10" />
    <vehicle id="vehicle_1556" depart="210" departLane="best" departSpeed="speedLimit" route="route_7" />
    <vehicle id="vehicle_153" depart="211" departLane="best" departSpeed="speedLimit" route="route_9" />
    <vehicle id="vehicle_86" depart="222" departLane="best" departSpeed="speedLimit" route="route_1" />
    <vehicle id="vehicle_87" depart="223" departLane="best" departSpeed="speedLimit" route="route_1" />
    <vehicle id="vehicle_88" depart="223" departLane="best" departSpeed="speedLimit" route="route_1" />
    <vehicle id="vehicle_89" depart="224" departLane="best" departSpeed="speedLimit" route="route_1" />
    <vehicle id="vehicle_90" depart="224" departLane="best" departSpeed="speedLimit" route="route_1" />
    <vehicle id="vehicle_91" depart="225" departLane="best" departSpeed="speedLimit" route="route_1" />
    <vehicle id="vehicle_92" depart="225" departLane="best" departSpeed="speedLimit" route="route_1" />
    <vehicle id="vehicle_93" depart="226" departLane="best" departSpeed="speedLimit" route="route_1" />
    <vehicle id="vehicle_94" depart="226" departLane="best" departSpeed="speedLimit" route="route_1" />
    <vehicle id="vehicle_95" depart="240" departLane="best" departSpeed="speedLimit" route="route_1" />
    <vehicle id="vehicle_96" depart="240" departLane="best" departSpeed="speedLimit" route="route_1" />
    <vehicle id="vehicle_1557" depart="240" departLane="best" departSpeed="speedLimit" route="route_7" />
    <vehicle id="vehicle_97" depart="241" departLane="best" departSpeed="speedLimit" route="route_1" />
    <vehicle id="vehicle_98" depart="242" departLane="best" departSpeed="speedLimit" route="route_1" />
    <vehicle id="vehicle_99" depart="243" departLane="best" departSpeed="speedLimit" route="route_1" />
    <vehicle id="vehicle_124" depart="244" departLane="best" departSpeed="speedLimit" route="route_3" />
    <vehicle id="vehicle_100" depart="245" departLane="best" departSpeed="speedLimit" route="route_1" />
    <vehicle id="vehicle_101" depart="246" departLane="best" departSpeed="speedLimit" route="route_1" />
    <vehicle id="vehicle_102" depart="247" departLane="best" departSpeed="speedLimit" route="route_1" />
    <vehicle id="vehicle_103" depart="247" departLane="best" departSpeed="speedLimit" route="route_1" />
    <vehicle id="vehicle_104" depart="248" departLane="best" departSpeed="speedLimit" route="route_1" />
    <vehicle id="vehicle_1558" depart="248" departLane="best" departSpeed="speedLimit" route="route_7" />
    <vehicle id="vehicle_105" depart="249" departLane="best" departSpeed="speedLimit" route="route_1" />
    <vehicle id="vehicle_106" depart="250" departLane="best" departSpeed="speedLimit" route="route_1" />
    <vehicle id="vehicle_1559" depart="252" departLane="best" departSpeed="speedLimit" route="route_7" />
    <vehicle id="vehicle_107" depart="254" departLane="best" departSpeed="speedLimit" route="route_0" />
    <vehicle id="vehicle_1560" depart="256" departLane="best" departSpeed="speedLimit" route="route_7" />
    <vehicle id="vehicle_1561" depart="258" departLane="best" departSpeed="speedLimit" route="route_7" />
    <vehicle id="vehicle_108" depart="260" departLane="best" departSpeed="speedLimit" route="route_1" />
    <vehicle id="vehicle_109" depart="260" departLane="best" departSpeed="speedLimit" route="route_1" />
    <vehicle id="vehicle_1562" depart="260" departLane="best" departSpeed="speedLimit" route="route_7" />
    <vehicle id="vehicle_1563" depart="260" departLane="best" departSpeed="speedLimit" route="route_7" />
    <vehicle id="vehicle_1564" depart="260" departLane="best" departSpeed="speedLimit" route="route_7" />
    <vehicle id="vehicle_110" depart="261" departLane="best" departSpeed="speedLimit" route="route_1" />
    <vehicle id="vehicle_111" depart="261" departLane="best" departSpeed="speedLimit" route="route_1" />
    <vehicle id="vehicle_112" depart="261" departLane="best" departSpeed="speedLimit" route="route_1" />
    <vehicle id="vehicle_113" depart="262" departLane="best" departSpeed="speedLimit" route="route_1" />
    <vehicle id="vehicle_114" depart="262" departLane="best" departSpeed="speedLimit" route="route_1" />
    <vehicle id="vehicle_115" depart="263" departLane="best" departSpeed="speedLimit" route="route_1" />
    <vehicle id="vehicle_116" depart="263" departLane="best" departSpeed="speedLimit" route="route_1" />
    <vehicle id="vehicle_1565" depart="264" departLane="best" departSpeed="speedLimit" route="route_7" />
    <vehicle id="vehicle_1566" depart="264" departLane="best" departSpeed="speedLimit" route="route_7" />
    <vehicle id="vehicle_1567" depart="266" departLane="best" departSpeed="speedLimit" route="route_7" />
    <vehicle id="vehicle_1568" depart="266" departLane="best" departSpeed="speedLimit" route="route_7" />
    <vehicle id="vehicle_1569" depart="266" departLane="best" departSpeed="speedLimit" route="route_7" />
    <vehicle id="vehicle_1570" depart="268" departLane="best" departSpeed="speedLimit" route="route_7" />
    <vehicle id="vehicle_117" depart="269" departLane="best" departSpeed="speedLimit" route="route_2" />
    <vehicle id="vehicle_118" depart="270" departLane="best" departSpeed="speedLimit" route="route_1" />
    <vehicle id="vehicle_119" depart="270" departLane="best" departSpeed="speedLimit" route="route_1" />
    <vehicle id="vehicle_120" depart="270" departLane="best" departSpeed="speedLimit" route="route_1" />
    <vehicle id="vehicle_1571" depart="270" departLane="best" departSpeed="speedLimit" route="route_7" />
    <vehicle id="vehicle_1572" depart="270" departLane="best" departSpeed="speedLimit" route="route_7" />
    <vehicle id="vehicle_121" depart="271" departLane="best" departSpeed="speedLimit" route="route_1" />
    <vehicle id="vehicle_1573" depart="272" departLane="best" departSpeed="speedLimit" route="route_7" />
    <vehicle id="vehicle_1574" depart="272" departLane="best" departSpeed="speedLimit" route="route_7" />
    <vehicle id="vehicle_1575" depart="272" departLane="best" departSpeed="speedLimit" route="route_7" />
    <vehicle id="vehicle_1576" depart="274" departLane="best" departSpeed="speedLimit" route="route_7" />
    <vehicle id="vehicle_1577" depart="274" departLane="best" departSpeed="speedLimit" route="route_7" />
    <vehicle id="vehicle_1578" depart="276" departLane="best" departSpeed="speedLimit" route="route_7" />
    <vehicle id="vehicle_1579" depart="276" departLane="best" departSpeed="speedLimit" route="route_7" />
    <vehicle id="vehicle_1580" depart="276" departLane="best" departSpeed="speedLimit" route="route_7" />
    <vehicle id="vehicle_122" depart="278" departLane="best" departSpeed="speedLimit" route="route_1" />
    <vehicle id="vehicle_123" depart="281" departLane="best" departSpeed="speedLimit" route="route_6" />
    <vehicle id="vehicle_1581" depart="284" departLane="best" departSpeed="speedLimit" route="route_8" />
    <vehicle id="vehicle_1582" depart="286" departLane="best" departSpeed="speedLimit" route="route_7" />
    <vehicle id="vehicle_1583" depart="286" departLane="best" departSpeed="speedLimit" route="route_7" />
    <vehicle id="vehicle_125" depart="288" departLane="best" departSpeed="speedLimit" route="route_3" />
    <vehicle id="vehicle_1584" depart="288" departLane="best" departSpeed="speedLimit" route="route_8" />
    <vehicle id="vehicle_1585" depart="288" departLane="best" departSpeed="speedLimit" route="route_7" />
    <vehicle id="vehicle_127" depart="295" departLane="best" departSpeed="speedLimit" route="route_1" />
    <vehicle id="vehicle_1586" depart="296" departLane="best" departSpeed="speedLimit" route="route_7" />
    <vehicle id="vehicle_1587" depart="296" departLane="best" departSpeed="speedLimit" route="route_7" />
    <vehicle id="vehicle_1588" depart="298" departLane="best" departSpeed="speedLimit" route="route_7" />
    <vehicle id="vehicle_1589" depart="302" departLane="best" departSpeed="speedLimit" route="route_7" />
    <vehicle id="vehicle_1590" depart="304" departLane="best" departSpeed="speedLimit" route="route_7" />
    <vehicle id="vehicle_128" depart="308" departLane="best" departSpeed="speedLimit" route="route_1" />
    <vehicle id="vehicle_1591" depart="308" departLane="best" departSpeed="speedLimit" route="route_6" />
    <vehicle id="vehicle_1592" depart="310" departLane="best" departSpeed="speedLimit" route="route_7" />
    <vehicle id="vehicle_1593" depart="310" departLane="best" departSpeed="speedLimit" route="route_7" />
    <vehicle id="vehicle_129" depart="311" departLane="best" departSpeed="speedLimit" route="route_1" />
    <vehicle id="vehicle_1594" depart="312" departLane="best" departSpeed="speedLimit" route="route_7" />
    <vehicle id="vehicle_1595" depart="312" departLane="best" departSpeed="speedLimit" route="route_7" />
    <vehicle id="vehicle_130" depart="313" departLane="best" departSpeed="speedLimit" route="route_1" />
    <vehicle id="vehicle_1596" depart="314" departLane="best" departSpeed="speedLimit" route="route_7" />
    <vehicle id="vehicle_126" depart="319" departLane="best" departSpeed="speedLimit" route="route_3" />
    <vehicle id="vehicle_1597" depart="320" departLane="best" departSpeed="speedLimit" route="route_7" />
    <vehicle id="vehicle_131" depart="322" departLane="best" departSpeed="speedLimit" route="route_1" />
    <vehicle id="vehicle_132" depart="323" departLane="best" departSpeed="speedLimit" route="route_1" />
    <vehicle id="vehicle_146" depart="326" departLane="best" departSpeed="speedLimit" route="route_4" />
    <vehicle id="vehicle_133" depart="329" departLane="best" departSpeed="speedLimit" route="route_1" />
    <vehicle id="vehicle_134" depart="329" departLane="best" departSpeed="speedLimit" route="route_1" />
    <vehicle id="vehicle_135" depart="330" departLane="best" departSpeed="speedLimit" route="route_1" />
    <vehicle id="vehicle_1598" depart="330" departLane="best" departSpeed="speedLimit" route="route_7" />
    <vehicle id="vehicle_136" depart="335" departLane="best" departSpeed="speedLimit" route="route_1" />
    <vehicle id="vehicle_137" depart="336" departLane="best" departSpeed="speedLimit" route="route_1" />
    <vehicle id="vehicle_138" depart="336" departLane="best" departSpeed="speedLimit" route="route_1" />
    <vehicle id="vehicle_139" depart="336" departLane="best" departSpeed="speedLimit" route="route_1" />
    <vehicle id="vehicle_140" depart="337" departLane="best" departSpeed="speedLimit" route="route_1" />
    <vehicle id="vehicle_141" depart="339" departLane="best" departSpeed="speedLimit" route="route_1" />
    <vehicle id="vehicle_142" depart="340" departLane="best" departSpeed="speedLimit" route="route_1" />
    <vehicle id="vehicle_1599" depart="340" departLane="best" departSpeed="speedLimit" route="route_7" />
    <vehicle id="vehicle_143" depart="343" departLane="best" departSpeed="speedLimit" route="route_1" />
    <vehicle id="vehicle_144" depart="346" departLane="best" departSpeed="speedLimit" route="route_1" />
    <vehicle id="vehicle_1600" depart="346" departLane="best" departSpeed="speedLimit" route="route_7" />
    <vehicle id="vehicle_145" depart="348" departLane="best" departSpeed="speedLimit" route="route_0" />
    <vehicle id="vehicle_1601" depart="352" departLane="best" departSpeed="speedLimit" route="route_8" />
    <vehicle id="vehicle_1602" depart="352" departLane="best" departSpeed="speedLimit" route="route_7" />
    <vehicle id="vehicle_1603" depart="358" departLane="best" departSpeed="speedLimit" route="route_7" />
    <vehicle id="vehicle_1604" depart="358" departLane="best" departSpeed="speedLimit" route="route_7" />
    <vehicle id="vehicle_1605" depart="364" departLane="best" departSpeed="speedLimit" route="route_6" />
    <vehicle id="vehicle_1606" depart="368" departLane="best" departSpeed="speedLimit" route="route_7" />
    <vehicle id="vehicle_1607" depart="368" departLane="best" departSpeed="speedLimit" route="route_7" />
    <vehicle id="vehicle_1608" depart="370" departLane="best" departSpeed="speedLimit" route="route_7" />
    <vehicle id="vehicle_154" depart="372" departLane="best" departSpeed="speedLimit" route="route_1" />
    <vehicle id="vehicle_1609" depart="372" departLane="best" departSpeed="speedLimit" route="route_7" />
    <vehicle id="vehicle_1610" depart="372" departLane="best" departSpeed="speedLimit" route="route_7" />
    <vehicle id="vehicle_155" depart="373" departLane="best" departSpeed="speedLimit" route="route_1" />
    <vehicle id="vehicle_156" depart="373" departLane="best" departSpeed="speedLimit" route="route_1" />
    <vehicle id="vehicle_157" depart="374" departLane="best" departSpeed="speedLimit" route="route_1" />
    <vehicle id="vehicle_1611" depart="374" departLane="best" departSpeed="speedLimit" route="route_7" />
    <vehicle id="vehicle_158" depart="375" departLane="best" departSpeed="speedLimit" route="route_1" />
    <vehicle id="vehicle_152" depart="376" departLane="best" departSpeed="speedLimit" route="route_4" />
    <vehicle id="vehicle_1612" depart="376" departLane="best" departSpeed="speedLimit" route="route_7" />
    <vehicle id="vehicle_1613" depart="378" departLane="best" departSpeed="speedLimit" route="route_7" />