<?xml version="1.0" encoding="UTF-8"?>

<routes>
    <vType id="typeNS" length="7.00" minGap="3.00" maxSpeed="25.00" guiShape="bus" accel="0.8" decel="4.5" sigma="0.5"/>
    <vType id="typeWE" length="5.00" minGap="2.50" maxSpeed="16.67" guiShape="passenger" accel="0.8" decel="4.5" sigma="0.5"/>
    <route edges="-gneE7 gneE5" color="yellow" id="route_0"/>
    <route edges="-gneE7 gneE6" color="yellow" id="route_1"/>
    <route edges="-gneE4 gneE5" color="yellow" id="route_10"/>
    <route edges="-gneE4 gneE6" color="yellow" id="route_11"/>
    <route edges="-gneE7 gneE4" color="yellow" id="route_2"/>
    <route edges="-gneE5 gneE6" color="yellow" id="route_3"/>
    <route edges="-gneE5 gneE4" color="yellow" id="route_4"/>
    <route edges="-gneE5 gneE7" color="yellow" id="route_5"/>
    <route edges="-gneE6 gneE4" color="yellow" id="route_6"/>
    <route edges="-gneE6 gneE7" color="yellow" id="route_7"/>
    <route edges="-gneE6 gneE5" color="yellow" id="route_8"/>
    <route edges="-gneE4 gneE7" color="yellow" id="route_9"/>
    <vehicle id="vehicle_2" depart="3" departLane="best" departSpeed="speedLimit" route="route_1" />
<vehicle id="vehicle_4" depart="3" departLane="best" departSpeed="speedLimit" route="route_1" />
<vehicle id="vehicle_5" depart="3" departLane="best" departSpeed="speedLimit" route="route_1" />
<vehicle id="vehicle_0" depart="4" departLane="best" departSpeed="speedLimit" route="route_9" />
<vehicle id="vehicle_3" depart="4" departLane="best" departSpeed="speedLimit" route="route_9" />
<vehicle id="vehicle_1" depart="5" departLane="best" departSpeed="speedLimit" route="route_3" />
<vehicle id="vehicle_6" depart="8" departLane="best" departSpeed="speedLimit" route="route_1" />
<vehicle id="vehicle_7" depart="10" departLane="best" departSpeed="speedLimit" route="route_1" />
<vehicle id="vehicle_8" depart="12" departLane="best" departSpeed="speedLimit" route="route_9" />
<vehicle id="vehicle_9" depart="13" departLane="best" departSpeed="speedLimit" route="route_2" />
<vehicle id="vehicle_10" depart="13" departLane="best" departSpeed="speedLimit" route="route_1" />
<vehicle id="vehicle_11" depart="14" departLane="best" departSpeed="speedLimit" route="route_1" />
<vehicle id="vehicle_12" depart="14" departLane="best" departSpeed="speedLimit" route="route_1" />
<vehicle id="vehicle_13" depart="15" departLane="best" departSpeed="speedLimit" route="route_1" />
<vehicle id="vehicle_14" depart="15" departLane="best" departSpeed="speedLimit" route="route_0" />
<vehicle id="vehicle_15" depart="16" departLane="best" departSpeed="speedLimit" route="route_1" />
<vehicle id="vehicle_16" depart="17" departLane="best" departSpeed="speedLimit" route="route_1" />
<vehicle id="vehicle_17" depart="22" departLane="best" departSpeed="speedLimit" route="route_2" />
<vehicle id="vehicle_18" depart="22" departLane="best" departSpeed="speedLimit" route="route_1" />
<vehicle id="vehicle_1162" depart="22" departLane="best" departSpeed="speedLimit" route="route_7" />
<vehicle id="vehicle_19" depart="23" departLane="best" departSpeed="speedLimit" route="route_1" />
<vehicle id="vehicle_20" depart="23" departLane="best" departSpeed="speedLimit" route="route_1" />
<vehicle id="vehicle_21" depart="23" departLane="best" departSpeed="speedLimit" route="route_1" />
<vehicle id="vehicle_22" depart="24" departLane="best" departSpeed="speedLimit" route="route_1" />
<vehicle id="vehicle_23" depart="24" departLane="best" departSpeed="speedLimit" route="route_1" />
<vehicle id="vehicle_1163" depart="24" departLane="best" departSpeed="speedLimit" route="route_7" />
<vehicle id="vehicle_1164" depart="26" departLane="best" departSpeed="speedLimit" route="route_7" />
<vehicle id="vehicle_36" depart="27" departLane="best" departSpeed="speedLimit" route="route_11" />
<vehicle id="vehicle_24" depart="28" departLane="best" departSpeed="speedLimit" route="route_2" />
<vehicle id="vehicle_32" depart="28" departLane="best" departSpeed="speedLimit" route="route_5" />
<vehicle id="vehicle_1165" depart="28" departLane="best" departSpeed="speedLimit" route="route_7" />
<vehicle id="vehicle_25" depart="29" departLane="best" departSpeed="speedLimit" route="route_1" />
<vehicle id="vehicle_26" depart="29" departLane="best" departSpeed="speedLimit" route="route_1" />
<vehicle id="vehicle_27" depart="30" departLane="best" departSpeed="speedLimit" route="route_1" />
<vehicle id="vehicle_28" depart="30" departLane="best" departSpeed="speedLimit" route="route_1" />
<vehicle id="vehicle_1166" depart="30" departLane="best" departSpeed="speedLimit" route="route_7" />
<vehicle id="vehicle_29" depart="31" departLane="best" departSpeed="speedLimit" route="route_2" />
<vehicle id="vehicle_30" depart="32" departLane="best" departSpeed="speedLimit" route="route_1" />
<vehicle id="vehicle_1167" depart="32" departLane="best" departSpeed="speedLimit" route="route_7" />
<vehicle id="vehicle_1168" depart="32" departLane="best" departSpeed="speedLimit" route="route_7" />
<vehicle id="vehicle_1169" depart="34" departLane="best" departSpeed="speedLimit" route="route_7" />
<vehicle id="vehicle_1170" depart="34" departLane="best" departSpeed="speedLimit" route="route_7" />
<vehicle id="vehicle_1171" depart="36" departLane="best" departSpeed="speedLimit" route="route_7" />
<vehicle id="vehicle_1172" depart="36" departLane="best" departSpeed="speedLimit" route="route_7" />
<vehicle id="vehicle_1173" depart="38" departLane="best" departSpeed="speedLimit" route="route_7" />
<vehicle id="vehicle_33" depart="39" departLane="best" departSpeed="speedLimit" route="route_5" />
<vehicle id="vehicle_34" depart="41" departLane="best" departSpeed="speedLimit" route="route_3" />
<vehicle id="vehicle_1174" depart="42" departLane="best" departSpeed="speedLimit" route="route_7" />
<vehicle id="vehicle_1175" depart="42" departLane="best" departSpeed="speedLimit" route="route_7" />
<vehicle id="vehicle_1176" depart="44" departLane="best" departSpeed="speedLimit" route="route_7" />
<vehicle id="vehicle_37" depart="45" departLane="best" departSpeed="speedLimit" route="route_9" />
<vehicle id="vehicle_1177" depart="46" departLane="best" departSpeed="speedLimit" route="route_7" />
<vehicle id="vehicle_31" depart="47" departLane="best" departSpeed="speedLimit" route="route_2" />
<vehicle id="vehicle_1178" depart="48" departLane="best" departSpeed="speedLimit" route="route_7" />
<vehicle id="vehicle_35" depart="49" departLane="best" departSpeed="speedLimit" route="route_3" />
<vehicle id="vehicle_1179" depart="50" departLane="best" departSpeed="speedLimit" route="route_7" />
<vehicle id="vehicle_1180" depart="50" departLane="best" departSpeed="speedLimit" route="route_7" />
<vehicle id="vehicle_38" depart="60" departLane="best" departSpeed="speedLimit" route="route_1" />
<vehicle id="vehicle_39" depart="60" departLane="best" departSpeed="speedLimit" route="route_1" />
<vehicle id="vehicle_40" depart="60" departLane="best" departSpeed="speedLimit" route="route_1" />
<vehicle id="vehicle_41" depart="60" departLane="best" departSpeed="speedLimit" route="route_1" />
<vehicle id="vehicle_1181" depart="60" departLane="best" departSpeed="speedLimit" route="route_7" />
<vehicle id="vehicle_1182" depart="60" departLane="best" departSpeed="speedLimit" route="route_7" />
<vehicle id="vehicle_42" depart="61" departLane="best" departSpeed="speedLimit" route="route_1" />
<vehicle id="vehicle_43" depart="62" departLane="best" departSpeed="speedLimit" route="route_1" />
<vehicle id="vehicle_1183" depart="62" departLane="best" departSpeed="speedLimit" route="route_7" />
<vehicle id="vehicle_1184" depart="64" departLane="best" departSpeed="speedLimit" route="route_7" />
<vehicle id="vehicle_1185" depart="66" departLane="best" departSpeed="speedLimit" route="route_7" />
<vehicle id="vehicle_1186" depart="68" departLane="best" departSpeed="speedLimit" route="route_7" />
<vehicle id="vehicle_44" depart="72" departLane="best" departSpeed="speedLimit" route="route_1" />
<vehicle id="vehicle_45" depart="72" departLane="best" departSpeed="speedLimit" route="route_1" />
<vehicle id="vehicle_46" depart="77" departLane="best" departSpeed="speedLimit" route="route_3" />
<vehicle id="vehicle_47" depart="82" departLane="best" departSpeed="speedLimit" route="route_1" />
<vehicle id="vehicle_48" depart="84" departLane="best" departSpeed="speedLimit" route="route_9" />
<vehicle id="vehicle_1187" depart="84" departLane="best" departSpeed="speedLimit" route="route_7" />
<vehicle id="vehicle_1188" depart="84" departLane="best" departSpeed="speedLimit" route="route_7" />
<vehicle id="vehicle_1189" depart="84" departLane="best" departSpeed="speedLimit" route="route_7" />
<vehicle id="vehicle_1190" depart="90" departLane="best" departSpeed="speedLimit" route="route_7" />
<vehicle id="vehicle_1191" depart="94" departLane="best" departSpeed="speedLimit" route="route_7" />
<vehicle id="vehicle_1192" depart="94" departLane="best" departSpeed="speedLimit" route="route_8" />
<vehicle id="vehicle_53" depart="95" departLane="best" departSpeed="speedLimit" route="route_4" />
<vehicle id="vehicle_1193" depart="96" departLane="best" departSpeed="speedLimit" route="route_7" />
<vehicle id="vehicle_54" depart="98" departLane="best" departSpeed="speedLimit" route="route_4" />
<vehicle id="vehicle_55" depart="100" departLane="best" departSpeed="speedLimit" route="route_11" />
<vehicle id="vehicle_1194" depart="104" departLane="best" departSpeed="speedLimit" route="route_6" />
<vehicle id="vehicle_49" depart="106" departLane="best" departSpeed="speedLimit" route="route_1" />
<vehicle id="vehicle_50" depart="106" departLane="best" departSpeed="speedLimit" route="route_1" />
<vehicle id="vehicle_51" depart="111" departLane="best" departSpeed="speedLimit" route="route_0" />
<vehicle id="vehicle_52" depart="120" departLane="best" departSpeed="speedLimit" route="route_1" />
<vehicle id="vehicle_1195" depart="122" departLane="best" departSpeed="speedLimit" route="route_7" />
<vehicle id="vehicle_56" depart="128" departLane="best" departSpeed="speedLimit" route="route_1" />
<vehicle id="vehicle_57" depart="129" departLane="best" departSpeed="speedLimit" route="route_1" />
<vehicle id="vehicle_1196" depart="132" departLane="best" departSpeed="speedLimit" route="route_7" />
<vehicle id="vehicle_76" depart="135" departLane="best" departSpeed="speedLimit" route="route_5" />
<vehicle id="vehicle_58" depart="136" departLane="best" departSpeed="speedLimit" route="route_1" />
<vehicle id="vehicle_1197" depart="138" departLane="best" departSpeed="speedLimit" route="route_7" />
<vehicle id="vehicle_59" depart="139" departLane="best" departSpeed="speedLimit" route="route_1" />
<vehicle id="vehicle_60" depart="140" departLane="best" departSpeed="speedLimit" route="route_1" />
<vehicle id="vehicle_1198" depart="140" departLane="best" departSpeed="speedLimit" route="route_7" />
<vehicle id="vehicle_61" depart="141" departLane="best" departSpeed="speedLimit" route="route_1" />
<vehicle id="vehicle_62" depart="142" departLane="best" departSpeed="speedLimit" route="route_1" />
<vehicle id="vehicle_1199" depart="142" departLane="best" departSpeed="speedLimit" route="route_7" />
<vehicle id="vehicle_63" depart="143" departLane="best" departSpeed="speedLimit" route="route_1" />
<vehicle id="vehicle_1200" depart="144" departLane="best" departSpeed="speedLimit" route="route_7" />
<vehicle id="vehicle_1201" depart="144" departLane="best" departSpeed="speedLimit" route="route_7" />
<vehicle id="vehicle_64" depart="147" departLane="best" departSpeed="speedLimit" route="route_1" />
<vehicle id="vehicle_65" depart="148" departLane="best" departSpeed="speedLimit" route="route_1" />
<vehicle id="vehicle_1202" depart="148" departLane="best" departSpeed="speedLimit" route="route_7" />
<vehicle id="vehicle_1203" depart="152" departLane="best" departSpeed="speedLimit" route="route_7" />
<vehicle id="vehicle_67" depart="155" departLane="best" departSpeed="speedLimit" route="route_1" />
<vehicle id="vehicle_1204" depart="156" departLane="best" departSpeed="speedLimit" route="route_7" />
<vehicle id="vehicle_66" depart="158" departLane="best" departSpeed="speedLimit" route="route_9" />
<vehicle id="vehicle_1205" depart="160" departLane="best" departSpeed="speedLimit" route="route_7" />
<vehicle id="vehicle_71" depart="162" departLane="best" departSpeed="speedLimit" route="route_9" />
<vehicle id="vehicle_1206" depart="162" departLane="best" departSpeed="speedLimit" route="route_7" />
<vehicle id="vehicle_1207" depart="162" departLane="best" departSpeed="speedLimit" route="route_7" />
<vehicle id="vehicle_1208" depart="164" departLane="best" departSpeed="speedLimit" route="route_7" />
<vehicle id="vehicle_1209" depart="166" departLane="best" departSpeed="speedLimit" route="route_7" />
<vehicle id="vehicle_1210" depart="166" departLane="best" departSpeed="speedLimit" route="route_7" />
<vehicle id="vehicle_68" depart="167" departLane="best" departSpeed="speedLimit" route="route_1" />
<vehicle id="vehicle_69" depart="168" departLane="best" departSpeed="speedLimit" route="route_1" />
<vehicle id="vehicle_70" depart="168" departLane="best" departSpeed="speedLimit" route="route_1" />
<vehicle id="vehicle_73" depart="169" departLane="best" departSpeed="speedLimit" route="route_1" />
<vehicle id="vehicle_72" depart="172" departLane="best" departSpeed="speedLimit" route="route_9" />
<vehicle id="vehicle_1211" depart="172" departLane="best" departSpeed="speedLimit" route="route_7" />
<vehicle id="vehicle_1212" depart="172" departLane="best" departSpeed="speedLimit" route="route_7" />
<vehicle id="vehicle_74" depart="173" departLane="best" departSpeed="speedLimit" route="route_1" />
<vehicle id="vehicle_75" depart="174" departLane="best" departSpeed="speedLimit" route="route_1" />
<vehicle id="vehicle_1213" depart="174" departLane="best" departSpeed="speedLimit" route="route_7" />
<vehicle id="vehicle_78" depart="176" departLane="best" departSpeed="speedLimit" route="route_3" />
<vehicle id="vehicle_1214" depart="176" departLane="best" departSpeed="speedLimit" route="route_7" />
<vehicle id="vehicle_1215" depart="178" departLane="best" departSpeed="speedLimit" route="route_7" />
<vehicle id="vehicle_1216" depart="178" departLane="best" departSpeed="speedLimit" route="route_7" />
<vehicle id="vehicle_77" depart="180" departLane="best" departSpeed="speedLimit" route="route_1" />
<vehicle id="vehicle_1217" depart="180" departLane="best" departSpeed="speedLimit" route="route_7" />
<vehicle id="vehicle_1218" depart="180" departLane="best" departSpeed="speedLimit" route="route_7" />
<vehicle id="vehicle_1219" depart="182" departLane="best" departSpeed="speedLimit" route="route_7" />
<vehicle id="vehicle_79" depart="183" departLane="best" departSpeed="speedLimit" route="route_1" />
<vehicle id="vehicle_1220" depart="184" departLane="best" departSpeed="speedLimit" route="route_7" />
<vehicle id="vehicle_80" depart="186" departLane="best" departSpeed="speedLimit" route="route_1" />
<vehicle id="vehicle_81" depart="187" departLane="best" departSpeed="speedLimit" route="route_1" />
<vehicle id="vehicle_82" depart="191" departLane="best" departSpeed="speedLimit" route="route_1" />
<vehicle id="vehicle_83" depart="193" departLane="best" departSpeed="speedLimit" route="route_1" />
<vehicle id="vehicle_1221" depart="194" departLane="best" departSpeed="speedLimit" route="route_7" />
<vehicle id="vehicle_1222" depart="194" departLane="best" departSpeed="speedLimit" route="route_7" />
<vehicle id="vehicle_84" depart="201" departLane="best" departSpeed="speedLimit" route="route_1" />
<vehicle id="vehicle_85" depart="201" departLane="best" departSpeed="speedLimit" route="route_2" />
<vehicle id="vehicle_88" depart="201" departLane="best" departSpeed="speedLimit" route="route_9" />
<vehicle id="vehicle_86" depart="202" departLane="best" departSpeed="speedLimit" route="route_1" />
<vehicle id="vehicle_87" depart="203" departLane="best" departSpeed="speedLimit" route="route_1" />
<vehicle id="vehicle_89" depart="210" departLane="best" departSpeed="speedLimit" route="route_1" />
<vehicle id="vehicle_90" depart="213" departLane="best" departSpeed="speedLimit" route="route_1" />
<vehicle id="vehicle_91" depart="215" departLane="best" departSpeed="speedLimit" route="route_1" />
<vehicle id="vehicle_92" depart="241" departLane="best" departSpeed="speedLimit" route="route_1" />
<vehicle id="vehicle_1223" depart="242" departLane="best" departSpeed="speedLimit" route="route_7" />
<vehicle id="vehicle_93" depart="254" departLane="best" departSpeed="speedLimit" route="route_1" />
<vehicle id="vehicle_94" depart="256" departLane="best" departSpeed="speedLimit" route="route_3" />
<vehicle id="vehicle_1224" depart="256" departLane="best" departSpeed="speedLimit" route="route_7" />
<vehicle id="vehicle_1225" depart="256" departLane="best" departSpeed="speedLimit" route="route_7" />
<vehicle id="vehicle_1226" depart="256" departLane="best" departSpeed="speedLimit" route="route_7" />
<vehicle id="vehicle_1227" depart="256" departLane="best" departSpeed="speedLimit" route="route_7" />
<vehicle id="vehicle_1228" depart="258" departLane="best" departSpeed="speedLimit" route="route_7" />
<vehicle id="vehicle_1229" depart="258" departLane="best" departSpeed="speedLimit" route="route_7" />
<vehicle id="vehicle_1230" depart="258" departLane="best" departSpeed="speedLimit" route="route_7" />
<vehicle id="vehicle_1231" depart="258" departLane="best" departSpeed="speedLimit" route="route_7" />
<vehicle id="vehicle_1232" depart="260" departLane="best" departSpeed="speedLimit" route="route_7" />
<vehicle id="vehicle_1233" depart="260" departLane="best" departSpeed="speedLimit" route="route_7" />
<vehicle id="vehicle_1234" depart="260" departLane="best" departSpeed="speedLimit" route="route_7" />
<vehicle id="vehicle_1235" depart="262" departLane="best" departSpeed="speedLimit" route="route_7" />
<vehicle id="vehicle_1236" depart="264" departLane="best" departSpeed="speedLimit" route="route_7" />
<vehicle id="vehicle_1237" depart="264" departLane="best" departSpeed="speedLimit" route="route_7" />
<vehicle id="vehicle_1238" depart="268" departLane="best" departSpeed="speedLimit" route="route_7" />
<vehicle id="vehicle_1239" depart="268" departLane="best" departSpeed="speedLimit" route="route_7" />
<vehicle id="vehicle_95" depart="270" departLane="best" departSpeed="speedLimit" route="route_1" />
<vehicle id="vehicle_1240" depart="272" departLane="best" departSpeed="speedLimit" route="route_7" />
<vehicle id="vehicle_1241" depart="274" departLane="best" departSpeed="speedLimit" route="route_7" />
<vehicle id="vehicle_1242" depart="274" departLane="best" departSpeed="speedLimit" route="route_7" />
<vehicle id="vehicle_96" depart="276" departLane="best" departSpeed="speedLimit" route="route_1" />
<vehicle id="vehicle_1243" depart="276" departLane="best" departSpeed="speedLimit" route="route_7" />
<vehicle id="vehicle_1244" depart="276" departLane="best" departSpeed="speedLimit" route="route_7" />
<vehicle id="vehicle_1245" depart="278" departLane="best" departSpeed="speedLimit" route="route_7" />
<vehicle id="vehicle_1246" depart="278" departLane="best" departSpeed="speedLimit" route="route_7" />
<vehicle id="vehicle_1247" depart="278" departLane="best" departSpeed="speedLimit" route="route_7" />
<vehicle id="vehicle_1248" depart="280" departLane="best" departSpeed="speedLimit" route="route_7" />
<vehicle id="vehicle_1249" depart="282" departLane="best" departSpeed="speedLimit" route="route_7" />
<vehicle id="vehicle_1250" depart="282" departLane="best" departSpeed="speedLimit" route="route_7" />
<vehicle id="vehicle_1251" depart="284" departLane="best" departSpeed="speedLimit" route="route_7" />
<vehicle id="vehicle_1252" depart="284" departLane="best" departSpeed="speedLimit" route="route_7" />
<vehicle id="vehicle_97" depart="288" departLane="best" departSpeed="speedLimit" route="route_1" />
<vehicle id="vehicle_1253" depart="288" departLane="best" departSpeed="speedLimit" route="route_7" />
<vehicle id="vehicle_1254" depart="290" departLane="best" departSpeed="speedLimit" route="route_7" />
<vehicle id="vehicle_1255" depart="290" departLane="best" departSpeed="speedLimit" route="route_7" />
<vehicle id="vehicle_98" depart="291" departLane="best" departSpeed="speedLimit" route="route_1" />
<vehicle id="vehicle_99" depart="292" departLane="best" departSpeed="speedLimit" route="route_1" />
<vehicle id="vehicle_1256" depart="292" departLane="best" departSpeed="speedLimit" route="route_7" />
<vehicle id="vehicle_111" depart="293" departLane="best" departSpeed="speedLimit" route="route_11" />
<vehicle id="vehicle_100" depart="294" departLane="best" departSpeed="speedLimit" route="route_1" />
<vehicle id="vehicle_1257" depart="294" departLane="best" departSpeed="speedLimit" route="route_7" />
<vehicle id="vehicle_1258" depart="294" departLane="best" departSpeed="speedLimit" route="route_8" />
<vehicle id="vehicle_101" depart="296" departLane="best" departSpeed="speedLimit" route="route_1" />
<vehicle id="vehicle_1259" depart="296" departLane="best" departSpeed="speedLimit" route="route_7" />
<vehicle id="vehicle_102" depart="298" departLane="best" departSpeed="speedLimit" route="route_1" />
<vehicle id="vehicle_103" depart="298" departLane="best" departSpeed="speedLimit" route="route_1" />
<vehicle id="vehicle_104" depart="301" departLane="best" departSpeed="speedLimit" route="route_1" />
<vehicle id="vehicle_105" depart="303" departLane="best" departSpeed="speedLimit" route="route_1" />
<vehicle id="vehicle_106" depart="304" departLane="best" departSpeed="speedLimit" route="route_1" />
<vehicle id="vehicle_1260" depart="304" departLane="best" departSpeed="speedLimit" route="route_7" />
<vehicle id="vehicle_1261" depart="304" departLane="best" departSpeed="speedLimit" route="route_8" />
<vehicle id="vehicle_107" depart="305" departLane="best" departSpeed="speedLimit" route="route_1" />
<vehicle id="vehicle_108" depart="306" departLane="best" departSpeed="speedLimit" route="route_1" />
<vehicle id="vehicle_109" depart="307" departLane="best" departSpeed="speedLimit" route="route_1" />
<vehicle id="vehicle_110" depart="310" departLane="best" departSpeed="speedLimit" route="route_1" />
<vehicle id="vehicle_1262" depart="312" departLane="best" departSpeed="speedLimit" route="route_7" />
<vehicle id="vehicle_1263" depart="312" departLane="best" departSpeed="speedLimit" route="route_8" />
<vehicle id="vehicle_112" depart="314" departLane="best" departSpeed="speedLimit" route="route_1" />
<vehicle id="vehicle_113" depart="316" departLane="best" departSpeed="speedLimit" route="route_1" />
<vehicle id="vehicle_114" depart="317" departLane="best" departSpeed="speedLimit" route="route_2" />
<vehicle id="vehicle_115" depart="317" departLane="best" departSpeed="speedLimit" route="route_0" />
<vehicle id="vehicle_116" depart="318" departLane="best" departSpeed="speedLimit" route="route_1" />
<vehicle id="vehicle_1264" depart="318" departLane="best" departSpeed="speedLimit" route="route_7" />
<vehicle id="vehicle_117" depart="322" departLane="best" departSpeed="speedLimit" route="route_1" />
<vehicle id="vehicle_1265" depart="322" departLane="best" departSpeed="speedLimit" route="route_7" />
<vehicle id="vehicle_120" depart="326" departLane="best" departSpeed="speedLimit" route="route_1" />
<vehicle id="vehicle_121" depart="327" departLane="best" departSpeed="speedLimit" route="route_1" />
<vehicle id="vehicle_122" depart="338" departLane="best" departSpeed="speedLimit" route="route_1" />
<vehicle id="vehicle_1266" depart="338" departLane="best" departSpeed="speedLimit" route="route_7" />
<vehicle id="vehicle_1267" depart="338" departLane="best" departSpeed="speedLimit" route="route_7" />
<vehicle id="vehicle_123" depart="342" departLane="best" departSpeed="speedLimit" route="route_1" />
<vehicle id="vehicle_1268" depart="346" departLane="best" departSpeed="speedLimit" route="route_8" />
<vehicle id="vehicle_118" depart="348" departLane="best" departSpeed="speedLimit" route="route_9" />
<vehicle id="vehicle_119" depart="349" departLane="best" departSpeed="speedLimit" route="route_9" />
<vehicle id="vehicle_124" depart="351" departLane="best" departSpeed="speedLimit" route="route_1" />
<vehicle id="vehicle_1269" depart="352" departLane="best" departSpeed="speedLimit" route="route_7" />
<vehicle id="vehicle_125" depart="360" departLane="best" departSpeed="speedLimit" route="route_1" />
<vehicle id="vehicle_126" depart="364" departLane="best" departSpeed="speedLimit" route="route_3" />
<vehicle id="vehicle_1270" depart="364" departLane="best" departSpeed="speedLimit" route="route_7" />
<vehicle id="vehicle_1271" depart="366" departLane="best" departSpeed="speedLimit" route="route_7" />
<vehicle id="vehicle_1272" depart="368" departLane="best" departSpeed="speedLimit" route="route_7" />
<vehicle id="vehicle_127" depart="369" departLane="best" departSpeed="speedLimit" route="route_5" />
<vehicle id="vehicle_128" depart="370" departLane="best" departSpeed="speedLimit" route="route_1" />
<vehicle id="vehicle_1273" depart="370" departLane="best" departSpeed="speedLimit" route="route_7" />
<vehicle id="vehicle_129" depart="371" departLane="best" departSpeed="speedLimit" route="route_1" />
<vehicle id="vehicle_130" depart="372" departLane="best" departSpeed="speedLimit" route="route_1" />
<vehicle id="vehicle_131" depart="372" departLane="best" departSpeed="speedLimit" route="route_1" />
<vehicle id="vehicle_1274" depart="372" departLane="best" departSpeed="speedLimit" route="route_7" />
<vehicle id="vehicle_1275" depart="374" departLane="best" departSpeed="speedLimit" route="route_7" />
<vehicle id="vehicle_133" depart="375" departLane="best" departSpeed="speedLimit" route="route_1" />
<vehicle id="vehicle_1276" depart="378" departLane="best" departSpeed="speedLimit" route="route_7" />
<vehicle id="vehicle_132" depart="380" departLane="best" departSpeed="speedLimit" route="route_3" />
<vehicle id="vehicle_1277" depart="382" departLane="best" departSpeed="speedLimit" route="route_7" />
<vehicle id="vehicle_1278" depart="384" departLane="best" departSpeed="speedLimit" route="route_7" />
<vehicle id="vehicle_134" depart="386" departLane="best" departSpeed="speedLimit" route="route_1" />
<vehicle id="vehicle_1279" depart="388" departLane="best" departSpeed="speedLimit" route="route_7" />
<vehicle id="vehicle_136" depart="390" departLane="best" departSpeed="speedLimit" route="route_3" />
<vehicle id="vehicle_1280" depart="390" departLane="best" departSpeed="speedLimit" route="route_7" />
<vehicle id="vehicle_135" depart="391" departLane="best" departSpeed="speedLimit" route="route_1" />
<vehicle id="vehicle_1281" depart="392" departLane="best" departSpeed="speedLimit" route="route_7" />
<vehicle id="vehicle_1282" depart="392" departLane="best" departSpeed="speedLimit" route="route_7" />
<vehicle id="vehicle_1283" depart="394" departLane="best" departSpeed="speedLimit" route="route_7" />
<vehicle id="vehicle_137" depart="396" departLane="best" departSpeed="speedLimit" route="route_1" />
<vehicle id="vehicle_1284" depart="396" departLane="best" departSpeed="speedLimit" route="route_7" />
<vehicle id="vehicle_138" depart="397" departLane="best" departSpeed="speedLimit" route="route_1" />
<vehicle id="vehicle_1285" depart="400" departLane="best" departSpeed="speedLimit" route="route_8" />
<vehicle id="vehicle_1286" depart="400" departLane="best" departSpeed="speedLimit" route="route_7" />
<vehicle id="vehicle_1287" depart="402" departLane="best" departSpeed="speedLimit" route="route_7" />
<vehicle id="vehicle_140" depart="404" departLane="best" departSpeed="speedLimit" route="route_1" />
<vehicle id="vehicle_141" depart="404" departLane="best" departSpeed="speedLimit" route="route_1" />
<vehicle id="vehicle_1288" depart="404" departLane="best" departSpeed="speedLimit" route="route_7" />
<vehicle id="vehicle_1289" depart="404" departLane="best" departSpeed="speedLimit" route="route_7" />
<vehicle id="vehicle_1290" depart="406" departLane="best" departSpeed="speedLimit" route="route_8" />
<vehicle id="vehicle_1291" depart="408" departLane="best" departSpeed="speedLimit" route="route_7" />
<vehicle id="vehicle_1292" depart="412" departLane="best" departSpeed="speedLimit" route="route_7" />
<vehicle id="vehicle_139" depart="413" departLane="best" departSpeed="speedLimit" route="route_3" />
<vehicle id="vehicle_1293" depart="414" departLane="best" departSpeed="speedLimit" route="route_7" />
<vehicle id="vehicle_1294" depart="414" departLane="best" departSpeed="speedLimit" route="route_7" />
<vehicle id="vehicle_1295" depart="414" departLane="best" departSpeed="speedLimit" route="route_7" />
<vehicle id="vehicle_1296" depart="416" departLane="best" departSpeed="speedLimit" route="route_8" />
<vehicle id="vehicle_1297" depart="418" departLane="best" departSpeed="speedLimit" route="route_7" />
<vehicle id="vehicle_1298" depart="418" departLane="best" departSpeed="speedLimit" route="route_7" />
<vehicle id="vehicle_1299" depart="420" departLane="best" departSpeed="speedLimit" route="route_7" />
<vehicle id="vehicle_1300" depart="420" departLane="best" departSpeed="speedLimit" route="route_6" />
<vehicle id="vehicle_1301" depart="420" departLane="best" departSpeed="speedLimit" route="route_7" />
<vehicle id="vehicle_142" depart="421" departLane="best" departSpeed="speedLimit" route="route_4" />
<vehicle id="vehicle_1302" depart="422" departLane="best" departSpeed="speedLimit" route="route_7" />