<?xml version="1.0" encoding="UTF-8"?>

<routes>
    <vType id="typeNS" length="7.00" minGap="3.00" maxSpeed="25.00" guiShape="bus" accel="0.8" decel="4.5" sigma="0.5"/>
    <vType id="typeWE" length="5.00" minGap="2.50" maxSpeed="16.67" guiShape="passenger" accel="0.8" decel="4.5" sigma="0.5"/>
    <route edges="-gneE7 gneE5" color="yellow" id="route_0"/>
    <route edges="-gneE7 gneE6" color="yellow" id="route_1"/>
    <route edges="-gneE4 gneE5" color="yellow" id="route_10"/>
    <route edges="-gneE4 gneE6" color="yellow" id="route_11"/>
    <route edges="-gneE7 gneE4" color="yellow" id="route_2"/>
    <route edges="-gneE5 gneE6" color="yellow" id="route_3"/>
    <route edges="-gneE5 gneE4" color="yellow" id="route_4"/>
    <route edges="-gneE5 gneE7" color="yellow" id="route_5"/>
    <route edges="-gneE6 gneE4" color="yellow" id="route_6"/>
    <route edges="-gneE6 gneE7" color="yellow" id="route_7"/>
    <route edges="-gneE6 gneE5" color="yellow" id="route_8"/>
    <route edges="-gneE4 gneE7" color="yellow" id="route_9"/>
    <vehicle id="vehicle_0" depart="3" departLane="best" departSpeed="speedLimit" route="route_3" />
    <vehicle id="vehicle_1058" depart="8" departLane="best" departSpeed="speedLimit" route="route_8" />
    <vehicle id="vehicle_1" depart="10" departLane="best" departSpeed="speedLimit" route="route_1" />
    <vehicle id="vehicle_3" depart="15" departLane="best" departSpeed="speedLimit" route="route_9" />
    <vehicle id="vehicle_1059" depart="18" departLane="best" departSpeed="speedLimit" route="route_7" />
    <vehicle id="vehicle_7" depart="19" departLane="best" departSpeed="speedLimit" route="route_9" />
    <vehicle id="vehicle_2" depart="20" departLane="best" departSpeed="speedLimit" route="route_1" />
    <vehicle id="vehicle_4" depart="23" departLane="best" departSpeed="speedLimit" route="route_1" />
    <vehicle id="vehicle_5" depart="28" departLane="best" departSpeed="speedLimit" route="route_1" />
    <vehicle id="vehicle_6" depart="28" departLane="best" departSpeed="speedLimit" route="route_1" />
    <vehicle id="vehicle_8" depart="34" departLane="best" departSpeed="speedLimit" route="route_9" />
    <vehicle id="vehicle_1060" depart="34" departLane="best" departSpeed="speedLimit" route="route_7" />
    <vehicle id="vehicle_9" depart="37" departLane="best" departSpeed="speedLimit" route="route_1" />
    <vehicle id="vehicle_11" depart="39" departLane="best" departSpeed="speedLimit" route="route_9" />
    <vehicle id="vehicle_12" depart="40" departLane="best" departSpeed="speedLimit" route="route_9" />
    <vehicle id="vehicle_1061" depart="40" departLane="best" departSpeed="speedLimit" route="route_7" />
    <vehicle id="vehicle_10" depart="42" departLane="best" departSpeed="speedLimit" route="route_1" />
    <vehicle id="vehicle_1062" depart="42" departLane="best" departSpeed="speedLimit" route="route_7" />
    <vehicle id="vehicle_1063" depart="46" departLane="best" departSpeed="speedLimit" route="route_7" />
    <vehicle id="vehicle_1064" depart="48" departLane="best" departSpeed="speedLimit" route="route_7" />
    <vehicle id="vehicle_1065" depart="52" departLane="best" departSpeed="speedLimit" route="route_7" />
    <vehicle id="vehicle_1066" depart="54" departLane="best" departSpeed="speedLimit" route="route_7" />
    <vehicle id="vehicle_1067" depart="56" departLane="best" departSpeed="speedLimit" route="route_7" />
    <vehicle id="vehicle_1068" depart="56" departLane="best" departSpeed="speedLimit" route="route_7" />
    <vehicle id="vehicle_1069" depart="58" departLane="best" departSpeed="speedLimit" route="route_8" />
    <vehicle id="vehicle_13" depart="61" departLane="best" departSpeed="speedLimit" route="route_1" />
    <vehicle id="vehicle_14" depart="74" departLane="best" departSpeed="speedLimit" route="route_1" />
    <vehicle id="vehicle_15" depart="84" departLane="best" departSpeed="speedLimit" route="route_1" />
    <vehicle id="vehicle_16" depart="86" departLane="best" departSpeed="speedLimit" route="route_1" />
    <vehicle id="vehicle_17" depart="88" departLane="best" departSpeed="speedLimit" route="route_1" />
    <vehicle id="vehicle_18" depart="91" departLane="best" departSpeed="speedLimit" route="route_0" />
    <vehicle id="vehicle_19" depart="94" departLane="best" departSpeed="speedLimit" route="route_1" />
    <vehicle id="vehicle_20" depart="104" departLane="best" departSpeed="speedLimit" route="route_1" />
    <vehicle id="vehicle_1070" depart="106" departLane="best" departSpeed="speedLimit" route="route_7" />
    <vehicle id="vehicle_21" depart="114" departLane="best" departSpeed="speedLimit" route="route_1" />
    <vehicle id="vehicle_22" depart="116" departLane="best" departSpeed="speedLimit" route="route_1" />
    <vehicle id="vehicle_26" depart="118" departLane="best" departSpeed="speedLimit" route="route_11" />
    <vehicle id="vehicle_1071" depart="118" departLane="best" departSpeed="speedLimit" route="route_7" />
    <vehicle id="vehicle_23" depart="120" departLane="best" departSpeed="speedLimit" route="route_1" />
    <vehicle id="vehicle_24" depart="124" departLane="best" departSpeed="speedLimit" route="route_1" />
    <vehicle id="vehicle_27" depart="124" departLane="best" departSpeed="speedLimit" route="route_9" />
    <vehicle id="vehicle_25" depart="126" departLane="best" departSpeed="speedLimit" route="route_1" />
    <vehicle id="vehicle_29" depart="137" departLane="best" departSpeed="speedLimit" route="route_1" />
    <vehicle id="vehicle_30" depart="139" departLane="best" departSpeed="speedLimit" route="route_1" />
    <vehicle id="vehicle_31" depart="139" departLane="best" departSpeed="speedLimit" route="route_1" />
    <vehicle id="vehicle_28" depart="141" departLane="best" departSpeed="speedLimit" route="route_10" />
    <vehicle id="vehicle_1072" depart="148" departLane="best" departSpeed="speedLimit" route="route_7" />
    <vehicle id="vehicle_1073" depart="150" departLane="best" departSpeed="speedLimit" route="route_7" />
    <vehicle id="vehicle_1074" depart="152" departLane="best" departSpeed="speedLimit" route="route_7" />
    <vehicle id="vehicle_1075" depart="154" departLane="best" departSpeed="speedLimit" route="route_7" />
    <vehicle id="vehicle_1076" depart="156" departLane="best" departSpeed="speedLimit" route="route_7" />
    <vehicle id="vehicle_1077" depart="156" departLane="best" departSpeed="speedLimit" route="route_7" />
    <vehicle id="vehicle_1078" depart="158" departLane="best" departSpeed="speedLimit" route="route_7" />
    <vehicle id="vehicle_1079" depart="168" departLane="best" departSpeed="speedLimit" route="route_7" />
    <vehicle id="vehicle_33" depart="170" departLane="best" departSpeed="speedLimit" route="route_9" />
    <vehicle id="vehicle_1080" depart="172" departLane="best" departSpeed="speedLimit" route="route_7" />
    <vehicle id="vehicle_32" depart="175" departLane="best" departSpeed="speedLimit" route="route_3" />
    <vehicle id="vehicle_39" depart="179" departLane="best" departSpeed="speedLimit" route="route_9" />
    <vehicle id="vehicle_34" depart="181" departLane="best" departSpeed="speedLimit" route="route_1" />
    <vehicle id="vehicle_35" depart="182" departLane="best" departSpeed="speedLimit" route="route_1" />
    <vehicle id="vehicle_36" depart="184" departLane="best" departSpeed="speedLimit" route="route_1" />
    <vehicle id="vehicle_1081" depart="184" departLane="best" departSpeed="speedLimit" route="route_7" />
    <vehicle id="vehicle_37" depart="187" departLane="best" departSpeed="speedLimit" route="route_1" />
    <vehicle id="vehicle_38" depart="188" departLane="best" departSpeed="speedLimit" route="route_3" />
    <vehicle id="vehicle_1082" depart="188" departLane="best" departSpeed="speedLimit" route="route_7" />
    <vehicle id="vehicle_40" depart="208" departLane="best" departSpeed="speedLimit" route="route_1" />
    <vehicle id="vehicle_1083" depart="216" departLane="best" departSpeed="speedLimit" route="route_7" />
    <vehicle id="vehicle_41" depart="220" departLane="best" departSpeed="speedLimit" route="route_1" />
    <vehicle id="vehicle_42" depart="220" departLane="best" departSpeed="speedLimit" route="route_3" />
    <vehicle id="vehicle_43" depart="221" departLane="best" departSpeed="speedLimit" route="route_9" />
    <vehicle id="vehicle_1084" depart="222" departLane="best" departSpeed="speedLimit" route="route_8" />
    <vehicle id="vehicle_1085" depart="224" departLane="best" departSpeed="speedLimit" route="route_7" />
    <vehicle id="vehicle_44" depart="225" departLane="best" departSpeed="speedLimit" route="route_1" />
    <vehicle id="vehicle_45" depart="229" departLane="best" departSpeed="speedLimit" route="route_9" />
    <vehicle id="vehicle_46" depart="230" departLane="best" departSpeed="speedLimit" route="route_9" />
    <vehicle id="vehicle_1086" depart="230" departLane="best" departSpeed="speedLimit" route="route_7" />
    <vehicle id="vehicle_1087" depart="234" departLane="best" departSpeed="speedLimit" route="route_7" />
    <vehicle id="vehicle_47" depart="235" departLane="best" departSpeed="speedLimit" route="route_11" />
    <vehicle id="vehicle_1088" depart="236" departLane="best" departSpeed="speedLimit" route="route_7" />
    <vehicle id="vehicle_48" depart="238" departLane="best" departSpeed="speedLimit" route="route_9" />
    <vehicle id="vehicle_1089" depart="238" departLane="best" departSpeed="speedLimit" route="route_7" />
    <vehicle id="vehicle_1090" depart="242" departLane="best" departSpeed="speedLimit" route="route_7" />
    <vehicle id="vehicle_50" depart="244" departLane="best" departSpeed="speedLimit" route="route_1" />
    <vehicle id="vehicle_49" depart="246" departLane="best" departSpeed="speedLimit" route="route_3" />
    <vehicle id="vehicle_1091" depart="248" departLane="best" departSpeed="speedLimit" route="route_7" />
    <vehicle id="vehicle_1092" depart="248" departLane="best" departSpeed="speedLimit" route="route_7" />
    <vehicle id="vehicle_51" depart="250" departLane="best" departSpeed="speedLimit" route="route_1" />
    <vehicle id="vehicle_1093" depart="250" departLane="best" departSpeed="speedLimit" route="route_7" />
    <vehicle id="vehicle_1094" depart="254" departLane="best" departSpeed="speedLimit" route="route_7" />
    <vehicle id="vehicle_52" depart="262" departLane="best" departSpeed="speedLimit" route="route_1" />
    <vehicle id="vehicle_53" depart="270" departLane="best" departSpeed="speedLimit" route="route_1" />
    <vehicle id="vehicle_54" depart="271" departLane="best" departSpeed="speedLimit" route="route_1" />
    <vehicle id="vehicle_55" depart="274" departLane="best" departSpeed="speedLimit" route="route_1" />
    <vehicle id="vehicle_56" depart="276" departLane="best" departSpeed="speedLimit" route="route_1" />
    <vehicle id="vehicle_57" depart="280" departLane="best" departSpeed="speedLimit" route="route_2" />
    <vehicle id="vehicle_58" depart="281" departLane="best" departSpeed="speedLimit" route="route_1" />
    <vehicle id="vehicle_59" depart="282" departLane="best" departSpeed="speedLimit" route="route_1" />
    <vehicle id="vehicle_60" depart="282" departLane="best" departSpeed="speedLimit" route="route_1" />
    <vehicle id="vehicle_66" depart="296" departLane="best" departSpeed="speedLimit" route="route_3" />
    <vehicle id="vehicle_61" depart="304" departLane="best" departSpeed="speedLimit" route="route_1" />
    <vehicle id="vehicle_62" depart="305" departLane="best" departSpeed="speedLimit" route="route_1" />
    <vehicle id="vehicle_63" depart="305" departLane="best" departSpeed="speedLimit" route="route_1" />
    <vehicle id="vehicle_64" depart="306" departLane="best" departSpeed="speedLimit" route="route_1" />
    <vehicle id="vehicle_65" depart="306" departLane="best" departSpeed="speedLimit" route="route_1" />
    <vehicle id="vehicle_1095" depart="324" departLane="best" departSpeed="speedLimit" route="route_7" />
    <vehicle id="vehicle_1096" depart="324" departLane="best" departSpeed="speedLimit" route="route_7" />
    <vehicle id="vehicle_67" depart="327" departLane="best" departSpeed="speedLimit" route="route_1" />
    <vehicle id="vehicle_68" depart="328" departLane="best" departSpeed="speedLimit" route="route_1" />
    <vehicle id="vehicle_1097" depart="328" departLane="best" departSpeed="speedLimit" route="route_7" />
    <vehicle id="vehicle_1098" depart="332" departLane="best" departSpeed="speedLimit" route="route_7" />
    <vehicle id="vehicle_1099" depart="332" departLane="best" departSpeed="speedLimit" route="route_7" />
    <vehicle id="vehicle_69" depart="334" departLane="best" departSpeed="speedLimit" route="route_1" />
    <vehicle id="vehicle_1100" depart="334" departLane="best" departSpeed="speedLimit" route="route_7" />
    <vehicle id="vehicle_1101" depart="334" departLane="best" departSpeed="speedLimit" route="route_7" />
    <vehicle id="vehicle_1102" depart="336" departLane="best" departSpeed="speedLimit" route="route_7" />
    <vehicle id="vehicle_1103" depart="336" departLane="best" departSpeed="speedLimit" route="route_7" />
    <vehicle id="vehicle_1104" depart="338" departLane="best" departSpeed="speedLimit" route="route_7" />
    <vehicle id="vehicle_70" depart="340" departLane="best" departSpeed="speedLimit" route="route_2" />
    <vehicle id="vehicle_1105" depart="340" departLane="best" departSpeed="speedLimit" route="route_7" />
    <vehicle id="vehicle_1106" depart="340" departLane="best" departSpeed="speedLimit" route="route_7" />
    <vehicle id="vehicle_1107" depart="342" departLane="best" departSpeed="speedLimit" route="route_7" />
    <vehicle id="vehicle_71" depart="343" departLane="best" departSpeed="speedLimit" route="route_1" />
    <vehicle id="vehicle_1108" depart="344" departLane="best" departSpeed="speedLimit" route="route_7" />
    <vehicle id="vehicle_72" depart="348" departLane="best" departSpeed="speedLimit" route="route_1" />
    <vehicle id="vehicle_1109" depart="350" departLane="best" departSpeed="speedLimit" route="route_7" />
    <vehicle id="vehicle_1110" depart="352" departLane="best" departSpeed="speedLimit" route="route_7" />
    <vehicle id="vehicle_74" depart="361" departLane="best" departSpeed="speedLimit" route="route_3" />
    <vehicle id="vehicle_73" depart="362" departLane="best" departSpeed="speedLimit" route="route_1" />
    <vehicle id="vehicle_1111" depart="362" departLane="best" departSpeed="speedLimit" route="route_7" />
    <vehicle id="vehicle_1112" depart="368" departLane="best" departSpeed="speedLimit" route="route_7" />
    <vehicle id="vehicle_1113" depart="370" departLane="best" departSpeed="speedLimit" route="route_7" />
    <vehicle id="vehicle_75" depart="371" departLane="best" departSpeed="speedLimit" route="route_1" />
    <vehicle id="vehicle_1114" depart="372" departLane="best" departSpeed="speedLimit" route="route_8" />
    <vehicle id="vehicle_76" depart="376" departLane="best" departSpeed="speedLimit" route="route_1" />
    <vehicle id="vehicle_77" depart="381" departLane="best" departSpeed="speedLimit" route="route_5" />
    <vehicle id="vehicle_78" depart="390" departLane="best" departSpeed="speedLimit" route="route_1" />
    <vehicle id="vehicle_79" depart="391" departLane="best" departSpeed="speedLimit" route="route_1" />
    <vehicle id="vehicle_80" depart="393" departLane="best" departSpeed="speedLimit" route="route_1" />
    <vehicle id="vehicle_81" depart="406" departLane="best" departSpeed="speedLimit" route="route_1" />
    <vehicle id="vehicle_82" depart="406" departLane="best" departSpeed="speedLimit" route="route_1" />
    <vehicle id="vehicle_1115" depart="406" departLane="best" departSpeed="speedLimit" route="route_7" />
    <vehicle id="vehicle_1116" depart="406" departLane="best" departSpeed="speedLimit" route="route_7" />
    <vehicle id="vehicle_1117" depart="408" departLane="best" departSpeed="speedLimit" route="route_7" />
    <vehicle id="vehicle_83" depart="409" departLane="best" departSpeed="speedLimit" route="route_1" />
    <vehicle id="vehicle_1118" depart="410" departLane="best" departSpeed="speedLimit" route="route_7" />
    <vehicle id="vehicle_84" depart="414" departLane="best" departSpeed="speedLimit" route="route_1" />
    <vehicle id="vehicle_1119" depart="414" departLane="best" departSpeed="speedLimit" route="route_7" />
    <vehicle id="vehicle_1120" depart="414" departLane="best" departSpeed="speedLimit" route="route_7" />
    <vehicle id="vehicle_1121" depart="420" departLane="best" departSpeed="speedLimit" route="route_8" />
    <vehicle id="vehicle_1122" depart="422" departLane="best" departSpeed="speedLimit" route="route_7" />
    <vehicle id="vehicle_1123" depart="422" departLane="best" departSpeed="speedLimit" route="route_7" />
    <vehicle id="vehicle_85" depart="423" departLane="best" departSpeed="speedLimit" route="route_1" />
    <vehicle id="vehicle_87" depart="423" departLane="best" departSpeed="speedLimit" route="route_3" />
    <vehicle id="vehicle_1124" depart="424" departLane="best" departSpeed="speedLimit" route="route_7" />
    <vehicle id="vehicle_86" depart="425" departLane="best" departSpeed="speedLimit" route="route_1" />
    <vehicle id="vehicle_88" depart="426" departLane="best" departSpeed="speedLimit" route="route_3" />
    <vehicle id="vehicle_89" depart="429" departLane="best" departSpeed="speedLimit" route="route_1" />
    <vehicle id="vehicle_90" depart="432" departLane="best" departSpeed="speedLimit" route="route_3" />
    <vehicle id="vehicle_1125" depart="436" departLane="best" departSpeed="speedLimit" route="route_7" />
    <vehicle id="vehicle_93" depart="450" departLane="best" departSpeed="speedLimit" route="route_4" />
    <vehicle id="vehicle_1126" depart="452" departLane="best" departSpeed="speedLimit" route="route_7" />
    <vehicle id="vehicle_91" depart="457" departLane="best" departSpeed="speedLimit" route="route_11" />
    <vehicle id="vehicle_92" depart="460" departLane="best" departSpeed="speedLimit" route="route_9" />
    <vehicle id="vehicle_94" depart="474" departLane="best" departSpeed="speedLimit" route="route_1" />
    <vehicle id="vehicle_95" depart="475" departLane="best" departSpeed="speedLimit" route="route_2" />
    <vehicle id="vehicle_96" depart="480" departLane="best" departSpeed="speedLimit" route="route_2" />
    <vehicle id="vehicle_97" depart="480" departLane="best" departSpeed="speedLimit" route="route_1" />
    <vehicle id="vehicle_99" depart="488" departLane="best" departSpeed="speedLimit" route="route_9" />
    <vehicle id="vehicle_98" depart="490" departLane="best" departSpeed="speedLimit" route="route_1" />
    <vehicle id="vehicle_100" depart="492" departLane="best" departSpeed="speedLimit" route="route_1" />
    <vehicle id="vehicle_1127" depart="492" departLane="best" departSpeed="speedLimit" route="route_7" />
    <vehicle id="vehicle_101" depart="493" departLane="best" departSpeed="speedLimit" route="route_2" />
    <vehicle id="vehicle_1128" depart="504" departLane="best" departSpeed="speedLimit" route="route_7" />
    <vehicle id="vehicle_102" depart="505" departLane="best" departSpeed="speedLimit" route="route_1" />
    <vehicle id="vehicle_103" depart="505" departLane="best" departSpeed="speedLimit" route="route_1" />
    <vehicle id="vehicle_104" depart="506" departLane="best" departSpeed="speedLimit" route="route_0" />
    <vehicle id="vehicle_1129" depart="506" departLane="best" departSpeed="speedLimit" route="route_7" />
    <vehicle id="vehicle_105" depart="508" departLane="best" departSpeed="speedLimit" route="route_1" />
    <vehicle id="vehicle_106" depart="510" departLane="best" departSpeed="speedLimit" route="route_3" />
    <vehicle id="vehicle_107" depart="514" departLane="best" departSpeed="speedLimit" route="route_1" />
    <vehicle id="vehicle_108" depart="514" departLane="best" departSpeed="speedLimit" route="route_1" />
    <vehicle id="vehicle_1130" depart="516" departLane="best" departSpeed="speedLimit" route="route_8" />
    <vehicle id="vehicle_1131" depart="518" departLane="best" departSpeed="speedLimit" route="route_7" />
    <vehicle id="vehicle_109" depart="519" departLane="best" departSpeed="speedLimit" route="route_1" />
    <vehicle id="vehicle_1132" depart="528" departLane="best" departSpeed="speedLimit" route="route_7" />
    <vehicle id="vehicle_1133" depart="528" departLane="best" departSpeed="speedLimit" route="route_7" />
    <vehicle id="vehicle_110" depart="529" departLane="best" departSpeed="speedLimit" route="route_1" />
    <vehicle id="vehicle_1134" depart="530" departLane="best" departSpeed="speedLimit" route="route_7" />
    <vehicle id="vehicle_1135" depart="532" departLane="best" departSpeed="speedLimit" route="route_7" />
    <vehicle id="vehicle_111" depart="536" departLane="best" departSpeed="speedLimit" route="route_1" />
    <vehicle id="vehicle_112" depart="542" departLane="best" departSpeed="speedLimit" route="route_1" />
    <vehicle id="vehicle_1136" depart="542" departLane="best" departSpeed="speedLimit" route="route_7" />
    <vehicle id="vehicle_113" depart="547" departLane="best" departSpeed="speedLimit" route="route_1" />
    <vehicle id="vehicle_1137" depart="548" departLane="best" departSpeed="speedLimit" route="route_7" />
    <vehicle id="vehicle_114" depart="553" departLane="best" departSpeed="speedLimit" route="route_1" />
    <vehicle id="vehicle_115" depart="555" departLane="best" departSpeed="speedLimit" route="route_0" />
    <vehicle id="vehicle_116" depart="558" departLane="best" departSpeed="speedLimit" route="route_1" />
    <vehicle id="vehicle_117" depart="561" departLane="best" departSpeed="speedLimit" route="route_1" />
    <vehicle id="vehicle_1138" depart="576" departLane="best" departSpeed="speedLimit" route="route_7" />
    <vehicle id="vehicle_118" depart="580" departLane="best" departSpeed="speedLimit" route="route_1" />
    <vehicle id="vehicle_119" depart="582" departLane="best" departSpeed="speedLimit" route="route_1" />
    <vehicle id="vehicle_1139" depart="584" departLane="best" departSpeed="speedLimit" route="route_7" />
    <vehicle id="vehicle_1140" depart="586" departLane="best" departSpeed="speedLimit" route="route_7" />
    <vehicle id="vehicle_120" depart="588" departLane="best" departSpeed="speedLimit" route="route_9" />
    <vehicle id="vehicle_121" depart="595" departLane="best" departSpeed="speedLimit" route="route_1" />
    <vehicle id="vehicle_122" depart="598" departLane="best" departSpeed="speedLimit" route="route_1" />
    <vehicle id="vehicle_123" depart="604" departLane="best" departSpeed="speedLimit" route="route_1" />
    <vehicle id="vehicle_124" depart="607" departLane="best" departSpeed="speedLimit" route="route_1" />
    <vehicle id="vehicle_1141" depart="608" departLane="best" departSpeed="speedLimit" route="route_7" />
    <vehicle id="vehicle_125" depart="610" departLane="best" departSpeed="speedLimit" route="route_0" />
    <vehicle id="vehicle_128" depart="614" departLane="best" departSpeed="speedLimit" route="route_11" />
    <vehicle id="vehicle_126" depart="619" departLane="best" departSpeed="speedLimit" route="route_1" />
    <vehicle id="vehicle_1142" depart="622" departLane="best" departSpeed="speedLimit" route="route_7" />
    <vehicle id="vehicle_1143" depart="624" departLane="best" departSpeed="speedLimit" route="route_7" />
    <vehicle id="vehicle_127" depart="626" departLane="best" departSpeed="speedLimit" route="route_1" />
    <vehicle id="vehicle_1144" depart="626" departLane="best" departSpeed="speedLimit" route="route_7" />
    <vehicle id="vehicle_1145" depart="628" departLane="best" departSpeed="speedLimit" route="route_7" />
    <vehicle id="vehicle_129" depart="635" departLane="best" departSpeed="speedLimit" route="route_5" />
    <vehicle id="vehicle_130" depart="637" departLane="best" departSpeed="speedLimit" route="route_9" />
    <vehicle id="vehicle_131" depart="644" departLane="best" departSpeed="speedLimit" route="route_1" />
    <vehicle id="vehicle_1146" depart="644" departLane="best" departSpeed="speedLimit" route="route_7" />
    <vehicle id="vehicle_1147" depart="644" departLane="best" departSpeed="speedLimit" route="route_7" />
    <vehicle id="vehicle_1148" depart="646" departLane="best" departSpeed="speedLimit" route="route_7" />
    <vehicle id="vehicle_1149" depart="648" departLane="best" departSpeed="speedLimit" route="route_7" />
    <vehicle id="vehicle_1150" depart="652" departLane="best" departSpeed="speedLimit" route="route_7" />
    <vehicle id="vehicle_132" depart="653" departLane="best" departSpeed="speedLimit" route="route_1" />
    <vehicle id="vehicle_1151" depart="654" departLane="best" departSpeed="speedLimit" route="route_7" />
    <vehicle id="vehicle_133" depart="656" departLane="best" departSpeed="speedLimit" route="route_1" />
    <vehicle id="vehicle_134" depart="658" departLane="best" departSpeed="speedLimit" route="route_1" />
    <vehicle id="vehicle_135" depart="663" departLane="best" departSpeed="speedLimit" route="route_3" />
    <vehicle id="vehicle_136" depart="663" departLane="best" departSpeed="speedLimit" route="route_3" />
    <vehicle id="vehicle_1152" depart="672" departLane="best" departSpeed="speedLimit" route="route_7" />
    <vehicle id="vehicle_137" depart="698" departLane="best" departSpeed="speedLimit" route="route_2" />
    <vehicle id="vehicle_1153" depart="698" departLane="best" departSpeed="speedLimit" route="route_7" />
    <vehicle id="vehicle_1154" depart="700" departLane="best" departSpeed="speedLimit" route="route_7" />
    <vehicle id="vehicle_138" depart="704" departLane="best" departSpeed="speedLimit" route="route_1" />
    <vehicle id="vehicle_139" depart="707" departLane="best" departSpeed="speedLimit" route="route_2" />
    <vehicle id="vehicle_140" depart="708" departLane="best" departSpeed="speedLimit" route="route_1" />
    <vehicle id="vehicle_141" depart="708" departLane="best" departSpeed="speedLimit" route="route_1" />
    <vehicle id="vehicle_142" depart="709" departLane="best" departSpeed="speedLimit" route="route_1" />
    <vehicle id="vehicle_1155" depart="710" departLane="best" departSpeed="speedLimit" route="route_7" />
    <vehicle id="vehicle_143" depart="712" departLane="best" departSpeed="speedLimit" route="route_1" />
    <vehicle id="vehicle_144" depart="713" departLane="best" departSpeed="speedLimit" route="route_1" />
    <vehicle id="vehicle_145" depart="718" departLane="best" departSpeed="speedLimit" route="route_1" />
    <vehicle id="vehicle_1156" depart="718" departLane="best" departSpeed="speedLimit" route="route_7" />
    <vehicle id="vehicle_1157" depart="720" departLane="best" departSpeed="speedLimit" route="route_7" />
    <vehicle id="vehicle_1158" depart="722" departLane="best" departSpeed="speedLimit" route="route_7" />
    <vehicle id="vehicle_1159" depart="722" departLane="best" departSpeed="speedLimit" route="route_7" />
    <vehicle id="vehicle_146" depart="725" departLane="best" departSpeed="speedLimit" route="route_1" />
    <vehicle id="vehicle_1160" depart="728" departLane="best" departSpeed="speedLimit" route="route_7" />
    <vehicle id="vehicle_1161" depart="728" departLane="best" departSpeed="speedLimit" route="route_7" />
    <vehicle id="vehicle_147" depart="729" departLane="best" departSpeed="speedLimit" route="route_1" />
    <vehicle id="vehicle_1162" depart="730" departLane="best" departSpeed="speedLimit" route="route_7" />
    <vehicle id="vehicle_148" depart="731" departLane="best" departSpeed="speedLimit" route="route_1" />
    <vehicle id="vehicle_149" depart="735" departLane="best" departSpeed="speedLimit" route="route_1" />
    <vehicle id="vehicle_150" depart="736" departLane="best" departSpeed="speedLimit" route="route_1" />
    <vehicle id="vehicle_1163" depart="736" departLane="best" departSpeed="speedLimit" route="route_7" />
    <vehicle id="vehicle_1164" depart="738" departLane="best" departSpeed="speedLimit" route="route_7" />
    <vehicle id="vehicle_1165" depart="738" departLane="best" departSpeed="speedLimit" route="route_7" />
    <vehicle id="vehicle_156" depart="740" departLane="best" departSpeed="speedLimit" route="route_3" />
    <vehicle id="vehicle_155" depart="741" departLane="best" departSpeed="speedLimit" route="route_9" />
    <vehicle id="vehicle_151" depart="742" departLane="best" departSpeed="speedLimit" route="route_1" />
    <vehicle id="vehicle_1166" depart="742" departLane="best" departSpeed="speedLimit" route="route_8" />
    <vehicle id="vehicle_152" depart="745" departLane="best" departSpeed="speedLimit" route="route_1" />
    <vehicle id="vehicle_153" depart="746" departLane="best" departSpeed="speedLimit" route="route_1" />
    <vehicle id="vehicle_154" depart="747" departLane="best" departSpeed="speedLimit" route="route_1" />
    <vehicle id="vehicle_157" depart="759" departLane="best" departSpeed="speedLimit" route="route_9" />
    <vehicle id="vehicle_158" depart="759" departLane="best" departSpeed="speedLimit" route="route_9" />
    <vehicle id="vehicle_159" depart="776" departLane="best" departSpeed="speedLimit" route="route_1" />
    <vehicle id="vehicle_161" depart="794" departLane="best" departSpeed="speedLimit" route="route_11" />
    <vehicle id="vehicle_1167" depart="796" departLane="best" departSpeed="speedLimit" route="route_7" />
    <vehicle id="vehicle_162" depart="798" departLane="best" departSpeed="speedLimit" route="route_11" />
    <vehicle id="vehicle_1168" depart="800" departLane="best" departSpeed="speedLimit" route="route_7" />