<?xml version="1.0" encoding="UTF-8"?>

<routes>
    <vType id="typeNS" length="7.00" minGap="3.00" maxSpeed="25.00" guiShape="bus" accel="0.8" decel="4.5" sigma="0.5"/>
    <vType id="typeWE" length="5.00" minGap="2.50" maxSpeed="16.67" guiShape="passenger" accel="0.8" decel="4.5" sigma="0.5"/>
    <route edges="-gneE7 gneE5" color="yellow" id="route_0"/>
    <route edges="-gneE7 gneE6" color="yellow" id="route_1"/>
    <route edges="-gneE4 gneE5" color="yellow" id="route_10"/>
    <route edges="-gneE4 gneE6" color="yellow" id="route_11"/>
    <route edges="-gneE7 gneE4" color="yellow" id="route_2"/>
    <route edges="-gneE5 gneE6" color="yellow" id="route_3"/>
    <route edges="-gneE5 gneE4" color="yellow" id="route_4"/>
    <route edges="-gneE5 gneE7" color="yellow" id="route_5"/>
    <route edges="-gneE6 gneE4" color="yellow" id="route_6"/>
    <route edges="-gneE6 gneE7" color="yellow" id="route_7"/>
    <route edges="-gneE6 gneE5" color="yellow" id="route_8"/>
    <route edges="-gneE4 gneE7" color="yellow" id="route_9"/>
    <vehicle id="vehicle_2" depart="2" departLane="best" departSpeed="speedLimit" route="route_11" />
    <vehicle id="vehicle_3" depart="2" departLane="best" departSpeed="speedLimit" route="route_11" />
    <vehicle id="vehicle_4" depart="2" departLane="best" departSpeed="speedLimit" route="route_11" />
    <vehicle id="vehicle_0" depart="3" departLane="best" departSpeed="speedLimit" route="route_2" />
    <vehicle id="vehicle_1" depart="3" departLane="best" departSpeed="speedLimit" route="route_1" />
    <vehicle id="vehicle_897" depart="4" departLane="best" departSpeed="speedLimit" route="route_7" />
    <vehicle id="vehicle_7" depart="9" departLane="best" departSpeed="speedLimit" route="route_1" />
    <vehicle id="vehicle_8" depart="9" departLane="best" departSpeed="speedLimit" route="route_1" />
    <vehicle id="vehicle_5" depart="10" departLane="best" departSpeed="speedLimit" route="route_9" />
    <vehicle id="vehicle_898" depart="12" departLane="best" departSpeed="speedLimit" route="route_7" />
    <vehicle id="vehicle_899" depart="14" departLane="best" departSpeed="speedLimit" route="route_6" />
    <vehicle id="vehicle_900" depart="14" departLane="best" departSpeed="speedLimit" route="route_6" />
    <vehicle id="vehicle_9" depart="18" departLane="best" departSpeed="speedLimit" route="route_1" />
    <vehicle id="vehicle_901" depart="20" departLane="best" departSpeed="speedLimit" route="route_6" />
    <vehicle id="vehicle_902" depart="26" departLane="best" departSpeed="speedLimit" route="route_6" />
    <vehicle id="vehicle_903" depart="28" departLane="best" departSpeed="speedLimit" route="route_7" />
    <vehicle id="vehicle_904" depart="30" departLane="best" departSpeed="speedLimit" route="route_6" />
    <vehicle id="vehicle_905" depart="32" departLane="best" departSpeed="speedLimit" route="route_6" />
    <vehicle id="vehicle_906" depart="32" departLane="best" departSpeed="speedLimit" route="route_7" />
    <vehicle id="vehicle_907" depart="34" departLane="best" departSpeed="speedLimit" route="route_7" />
    <vehicle id="vehicle_6" depart="35" departLane="best" departSpeed="speedLimit" route="route_9" />
    <vehicle id="vehicle_908" depart="38" departLane="best" departSpeed="speedLimit" route="route_6" />
    <vehicle id="vehicle_909" depart="40" departLane="best" departSpeed="speedLimit" route="route_6" />
    <vehicle id="vehicle_910" depart="44" departLane="best" departSpeed="speedLimit" route="route_7" />
    <vehicle id="vehicle_911" depart="46" departLane="best" departSpeed="speedLimit" route="route_6" />
    <vehicle id="vehicle_912" depart="48" departLane="best" departSpeed="speedLimit" route="route_7" />
    <vehicle id="vehicle_913" depart="50" departLane="best" departSpeed="speedLimit" route="route_6" />
    <vehicle id="vehicle_914" depart="50" departLane="best" departSpeed="speedLimit" route="route_6" />
    <vehicle id="vehicle_915" depart="52" departLane="best" departSpeed="speedLimit" route="route_6" />
    <vehicle id="vehicle_15" depart="53" departLane="best" departSpeed="speedLimit" route="route_11" />
    <vehicle id="vehicle_16" depart="55" departLane="best" departSpeed="speedLimit" route="route_11" />
    <vehicle id="vehicle_17" depart="66" departLane="best" departSpeed="speedLimit" route="route_11" />
    <vehicle id="vehicle_18" depart="67" departLane="best" departSpeed="speedLimit" route="route_11" />
    <vehicle id="vehicle_19" depart="67" departLane="best" departSpeed="speedLimit" route="route_11" />
    <vehicle id="vehicle_20" depart="68" departLane="best" departSpeed="speedLimit" route="route_11" />
    <vehicle id="vehicle_21" depart="68" departLane="best" departSpeed="speedLimit" route="route_11" />
    <vehicle id="vehicle_916" depart="68" departLane="best" departSpeed="speedLimit" route="route_6" />
    <vehicle id="vehicle_22" depart="69" departLane="best" departSpeed="speedLimit" route="route_11" />
    <vehicle id="vehicle_917" depart="70" departLane="best" departSpeed="speedLimit" route="route_6" />
    <vehicle id="vehicle_23" depart="72" departLane="best" departSpeed="speedLimit" route="route_11" />
    <vehicle id="vehicle_918" depart="72" departLane="best" departSpeed="speedLimit" route="route_6" />
    <vehicle id="vehicle_919" depart="72" departLane="best" departSpeed="speedLimit" route="route_6" />
    <vehicle id="vehicle_24" depart="73" departLane="best" departSpeed="speedLimit" route="route_11" />
    <vehicle id="vehicle_920" depart="74" departLane="best" departSpeed="speedLimit" route="route_7" />
    <vehicle id="vehicle_921" depart="78" departLane="best" departSpeed="speedLimit" route="route_6" />
    <vehicle id="vehicle_922" depart="80" departLane="best" departSpeed="speedLimit" route="route_7" />
    <vehicle id="vehicle_923" depart="80" departLane="best" departSpeed="speedLimit" route="route_7" />
    <vehicle id="vehicle_25" depart="81" departLane="best" departSpeed="speedLimit" route="route_11" />
    <vehicle id="vehicle_10" depart="82" departLane="best" departSpeed="speedLimit" route="route_1" />
    <vehicle id="vehicle_924" depart="82" departLane="best" departSpeed="speedLimit" route="route_6" />
    <vehicle id="vehicle_925" depart="82" departLane="best" departSpeed="speedLimit" route="route_7" />
    <vehicle id="vehicle_926" depart="82" departLane="best" departSpeed="speedLimit" route="route_7" />
    <vehicle id="vehicle_11" depart="86" departLane="best" departSpeed="speedLimit" route="route_1" />
    <vehicle id="vehicle_927" depart="86" departLane="best" departSpeed="speedLimit" route="route_7" />
    <vehicle id="vehicle_12" depart="88" departLane="best" departSpeed="speedLimit" route="route_1" />
    <vehicle id="vehicle_928" depart="88" departLane="best" departSpeed="speedLimit" route="route_7" />
    <vehicle id="vehicle_929" depart="88" departLane="best" departSpeed="speedLimit" route="route_7" />
    <vehicle id="vehicle_13" depart="90" departLane="best" departSpeed="speedLimit" route="route_1" />
    <vehicle id="vehicle_930" depart="90" departLane="best" departSpeed="speedLimit" route="route_7" />
    <vehicle id="vehicle_931" depart="90" departLane="best" departSpeed="speedLimit" route="route_7" />
    <vehicle id="vehicle_14" depart="91" departLane="best" departSpeed="speedLimit" route="route_1" />
    <vehicle id="vehicle_26" depart="93" departLane="best" departSpeed="speedLimit" route="route_9" />
    <vehicle id="vehicle_27" depart="95" departLane="best" departSpeed="speedLimit" route="route_9" />
    <vehicle id="vehicle_932" depart="100" departLane="best" departSpeed="speedLimit" route="route_7" />
    <vehicle id="vehicle_933" depart="100" departLane="best" departSpeed="speedLimit" route="route_7" />
    <vehicle id="vehicle_934" depart="102" departLane="best" departSpeed="speedLimit" route="route_6" />
    <vehicle id="vehicle_935" depart="104" departLane="best" departSpeed="speedLimit" route="route_6" />
    <vehicle id="vehicle_936" depart="108" departLane="best" departSpeed="speedLimit" route="route_6" />
    <vehicle id="vehicle_937" depart="108" departLane="best" departSpeed="speedLimit" route="route_7" />
    <vehicle id="vehicle_938" depart="114" departLane="best" departSpeed="speedLimit" route="route_7" />
    <vehicle id="vehicle_939" depart="116" departLane="best" departSpeed="speedLimit" route="route_7" />
    <vehicle id="vehicle_940" depart="116" departLane="best" departSpeed="speedLimit" route="route_7" />
    <vehicle id="vehicle_941" depart="118" departLane="best" departSpeed="speedLimit" route="route_7" />
    <vehicle id="vehicle_942" depart="118" departLane="best" departSpeed="speedLimit" route="route_7" />
    <vehicle id="vehicle_943" depart="122" departLane="best" departSpeed="speedLimit" route="route_6" />
    <vehicle id="vehicle_31" depart="128" departLane="best" departSpeed="speedLimit" route="route_1" />
    <vehicle id="vehicle_28" depart="135" departLane="best" departSpeed="speedLimit" route="route_11" />
    <vehicle id="vehicle_29" depart="138" departLane="best" departSpeed="speedLimit" route="route_11" />
    <vehicle id="vehicle_30" depart="138" departLane="best" departSpeed="speedLimit" route="route_9" />
    <vehicle id="vehicle_944" depart="146" departLane="best" departSpeed="speedLimit" route="route_7" />
    <vehicle id="vehicle_33" depart="149" departLane="best" departSpeed="speedLimit" route="route_11" />
    <vehicle id="vehicle_32" depart="150" departLane="best" departSpeed="speedLimit" route="route_1" />
    <vehicle id="vehicle_945" depart="156" departLane="best" departSpeed="speedLimit" route="route_7" />
    <vehicle id="vehicle_34" depart="158" departLane="best" departSpeed="speedLimit" route="route_9" />
    <vehicle id="vehicle_35" depart="161" departLane="best" departSpeed="speedLimit" route="route_9" />
    <vehicle id="vehicle_946" depart="162" departLane="best" departSpeed="speedLimit" route="route_7" />
    <vehicle id="vehicle_36" depart="169" departLane="best" departSpeed="speedLimit" route="route_1" />
    <vehicle id="vehicle_38" depart="170" departLane="best" departSpeed="speedLimit" route="route_11" />
    <vehicle id="vehicle_37" depart="172" departLane="best" departSpeed="speedLimit" route="route_1" />
    <vehicle id="vehicle_947" depart="172" departLane="best" departSpeed="speedLimit" route="route_8" />
    <vehicle id="vehicle_948" depart="174" departLane="best" departSpeed="speedLimit" route="route_7" />
    <vehicle id="vehicle_40" depart="178" departLane="best" departSpeed="speedLimit" route="route_11" />
    <vehicle id="vehicle_39" depart="184" departLane="best" departSpeed="speedLimit" route="route_1" />
    <vehicle id="vehicle_949" depart="184" departLane="best" departSpeed="speedLimit" route="route_7" />
    <vehicle id="vehicle_950" depart="186" departLane="best" departSpeed="speedLimit" route="route_7" />
    <vehicle id="vehicle_41" depart="190" departLane="best" departSpeed="speedLimit" route="route_9" />
    <vehicle id="vehicle_951" depart="190" departLane="best" departSpeed="speedLimit" route="route_7" />
    <vehicle id="vehicle_952" depart="192" departLane="best" departSpeed="speedLimit" route="route_7" />
    <vehicle id="vehicle_42" depart="193" departLane="best" departSpeed="speedLimit" route="route_9" />
    <vehicle id="vehicle_953" depart="194" departLane="best" departSpeed="speedLimit" route="route_6" />
    <vehicle id="vehicle_954" depart="194" departLane="best" departSpeed="speedLimit" route="route_6" />
    <vehicle id="vehicle_43" depart="195" departLane="best" departSpeed="speedLimit" route="route_11" />
    <vehicle id="vehicle_955" depart="196" departLane="best" departSpeed="speedLimit" route="route_7" />
    <vehicle id="vehicle_47" depart="197" departLane="best" departSpeed="speedLimit" route="route_1" />
    <vehicle id="vehicle_956" depart="198" departLane="best" departSpeed="speedLimit" route="route_7" />
    <vehicle id="vehicle_48" depart="199" departLane="best" departSpeed="speedLimit" route="route_1" />
    <vehicle id="vehicle_49" depart="200" departLane="best" departSpeed="speedLimit" route="route_1" />
    <vehicle id="vehicle_957" depart="200" departLane="best" departSpeed="speedLimit" route="route_7" />
    <vehicle id="vehicle_958" depart="204" departLane="best" departSpeed="speedLimit" route="route_6" />
    <vehicle id="vehicle_44" depart="207" departLane="best" departSpeed="speedLimit" route="route_11" />
    <vehicle id="vehicle_45" depart="207" departLane="best" departSpeed="speedLimit" route="route_11" />
    <vehicle id="vehicle_959" depart="208" departLane="best" departSpeed="speedLimit" route="route_6" />
    <vehicle id="vehicle_46" depart="210" departLane="best" departSpeed="speedLimit" route="route_9" />
    <vehicle id="vehicle_960" depart="210" departLane="best" departSpeed="speedLimit" route="route_6" />
    <vehicle id="vehicle_961" depart="212" departLane="best" departSpeed="speedLimit" route="route_7" />
    <vehicle id="vehicle_962" depart="214" departLane="best" departSpeed="speedLimit" route="route_7" />
    <vehicle id="vehicle_963" depart="216" departLane="best" departSpeed="speedLimit" route="route_6" />
    <vehicle id="vehicle_964" depart="218" departLane="best" departSpeed="speedLimit" route="route_6" />
    <vehicle id="vehicle_50" depart="220" departLane="best" departSpeed="speedLimit" route="route_1" />
    <vehicle id="vehicle_965" depart="222" departLane="best" departSpeed="speedLimit" route="route_6" />
    <vehicle id="vehicle_55" depart="227" departLane="best" departSpeed="speedLimit" route="route_11" />
    <vehicle id="vehicle_966" depart="228" departLane="best" departSpeed="speedLimit" route="route_7" />
    <vehicle id="vehicle_967" depart="232" departLane="best" departSpeed="speedLimit" route="route_6" />
    <vehicle id="vehicle_968" depart="236" departLane="best" departSpeed="speedLimit" route="route_7" />
    <vehicle id="vehicle_56" depart="237" departLane="best" departSpeed="speedLimit" route="route_9" />
    <vehicle id="vehicle_57" depart="240" departLane="best" departSpeed="speedLimit" route="route_11" />
    <vehicle id="vehicle_969" depart="240" departLane="best" departSpeed="speedLimit" route="route_6" />
    <vehicle id="vehicle_58" depart="242" departLane="best" departSpeed="speedLimit" route="route_9" />
    <vehicle id="vehicle_970" depart="242" departLane="best" departSpeed="speedLimit" route="route_7" />
    <vehicle id="vehicle_971" depart="246" departLane="best" departSpeed="speedLimit" route="route_6" />
    <vehicle id="vehicle_972" depart="248" departLane="best" departSpeed="speedLimit" route="route_7" />
    <vehicle id="vehicle_59" depart="249" departLane="best" departSpeed="speedLimit" route="route_11" />
    <vehicle id="vehicle_51" depart="250" departLane="best" departSpeed="speedLimit" route="route_1" />
    <vehicle id="vehicle_973" depart="250" departLane="best" departSpeed="speedLimit" route="route_7" />
    <vehicle id="vehicle_974" depart="252" departLane="best" departSpeed="speedLimit" route="route_7" />
    <vehicle id="vehicle_60" depart="254" departLane="best" departSpeed="speedLimit" route="route_11" />
    <vehicle id="vehicle_975" depart="254" departLane="best" departSpeed="speedLimit" route="route_7" />
    <vehicle id="vehicle_61" depart="257" departLane="best" departSpeed="speedLimit" route="route_11" />
    <vehicle id="vehicle_62" depart="257" departLane="best" departSpeed="speedLimit" route="route_11" />
    <vehicle id="vehicle_52" depart="258" departLane="best" departSpeed="speedLimit" route="route_1" />
    <vehicle id="vehicle_976" depart="258" departLane="best" departSpeed="speedLimit" route="route_7" />
    <vehicle id="vehicle_53" depart="259" departLane="best" departSpeed="speedLimit" route="route_1" />
    <vehicle id="vehicle_54" depart="261" departLane="best" departSpeed="speedLimit" route="route_1" />
    <vehicle id="vehicle_977" depart="262" departLane="best" departSpeed="speedLimit" route="route_7" />
    <vehicle id="vehicle_978" depart="264" departLane="best" departSpeed="speedLimit" route="route_7" />
    <vehicle id="vehicle_63" depart="266" departLane="best" departSpeed="speedLimit" route="route_11" />
    <vehicle id="vehicle_979" depart="266" departLane="best" departSpeed="speedLimit" route="route_6" />
    <vehicle id="vehicle_980" depart="268" departLane="best" departSpeed="speedLimit" route="route_7" />
    <vehicle id="vehicle_64" depart="270" departLane="best" departSpeed="speedLimit" route="route_11" />
    <vehicle id="vehicle_981" depart="270" departLane="best" departSpeed="speedLimit" route="route_6" />
    <vehicle id="vehicle_982" depart="272" departLane="best" departSpeed="speedLimit" route="route_6" />
    <vehicle id="vehicle_983" depart="276" departLane="best" departSpeed="speedLimit" route="route_7" />
    <vehicle id="vehicle_984" depart="276" departLane="best" departSpeed="speedLimit" route="route_6" />
    <vehicle id="vehicle_985" depart="278" departLane="best" departSpeed="speedLimit" route="route_7" />
    <vehicle id="vehicle_986" depart="280" departLane="best" departSpeed="speedLimit" route="route_7" />
    <vehicle id="vehicle_68" depart="281" departLane="best" departSpeed="speedLimit" route="route_1" />
    <vehicle id="vehicle_987" depart="282" departLane="best" departSpeed="speedLimit" route="route_6" />
    <vehicle id="vehicle_988" depart="284" departLane="best" departSpeed="speedLimit" route="route_7" />
    <vehicle id="vehicle_65" depart="288" departLane="best" departSpeed="speedLimit" route="route_11" />
    <vehicle id="vehicle_989" depart="288" departLane="best" departSpeed="speedLimit" route="route_7" />
    <vehicle id="vehicle_990" depart="288" departLane="best" departSpeed="speedLimit" route="route_7" />
    <vehicle id="vehicle_991" depart="290" departLane="best" departSpeed="speedLimit" route="route_7" />
    <vehicle id="vehicle_992" depart="290" departLane="best" departSpeed="speedLimit" route="route_7" />
    <vehicle id="vehicle_66" depart="291" departLane="best" departSpeed="speedLimit" route="route_9" />
    <vehicle id="vehicle_69" depart="296" departLane="best" departSpeed="speedLimit" route="route_1" />
    <vehicle id="vehicle_70" depart="297" departLane="best" departSpeed="speedLimit" route="route_1" />
    <vehicle id="vehicle_67" depart="301" departLane="best" departSpeed="speedLimit" route="route_9" />
    <vehicle id="vehicle_78" depart="309" departLane="best" departSpeed="speedLimit" route="route_11" />
    <vehicle id="vehicle_993" depart="310" departLane="best" departSpeed="speedLimit" route="route_6" />
    <vehicle id="vehicle_79" depart="318" departLane="best" departSpeed="speedLimit" route="route_10" />
    <vehicle id="vehicle_71" depart="319" departLane="best" departSpeed="speedLimit" route="route_1" />
    <vehicle id="vehicle_994" depart="320" departLane="best" departSpeed="speedLimit" route="route_6" />
    <vehicle id="vehicle_80" depart="323" departLane="best" departSpeed="speedLimit" route="route_11" />
    <vehicle id="vehicle_995" depart="326" departLane="best" departSpeed="speedLimit" route="route_7" />
    <vehicle id="vehicle_996" depart="328" departLane="best" departSpeed="speedLimit" route="route_6" />
    <vehicle id="vehicle_81" depart="329" departLane="best" departSpeed="speedLimit" route="route_11" />
    <vehicle id="vehicle_997" depart="330" departLane="best" departSpeed="speedLimit" route="route_6" />
    <vehicle id="vehicle_998" depart="330" departLane="best" departSpeed="speedLimit" route="route_7" />
    <vehicle id="vehicle_82" depart="332" departLane="best" departSpeed="speedLimit" route="route_11" />
    <vehicle id="vehicle_999" depart="332" departLane="best" departSpeed="speedLimit" route="route_7" />
    <vehicle id="vehicle_72" depart="334" departLane="best" departSpeed="speedLimit" route="route_1" />
    <vehicle id="vehicle_1000" depart="336" departLane="best" departSpeed="speedLimit" route="route_7" />
    <vehicle id="vehicle_73" depart="337" departLane="best" departSpeed="speedLimit" route="route_0" />
    <vehicle id="vehicle_74" depart="338" departLane="best" departSpeed="speedLimit" route="route_1" />
    <vehicle id="vehicle_83" depart="340" departLane="best" departSpeed="speedLimit" route="route_11" />
    <vehicle id="vehicle_1001" depart="342" departLane="best" departSpeed="speedLimit" route="route_7" />
    <vehicle id="vehicle_84" depart="343" departLane="best" departSpeed="speedLimit" route="route_11" />
    <vehicle id="vehicle_75" depart="345" departLane="best" departSpeed="speedLimit" route="route_1" />
    <vehicle id="vehicle_85" depart="349" departLane="best" departSpeed="speedLimit" route="route_11" />
    <vehicle id="vehicle_76" depart="350" departLane="best" departSpeed="speedLimit" route="route_1" />
    <vehicle id="vehicle_1002" depart="350" departLane="best" departSpeed="speedLimit" route="route_7" />
    <vehicle id="vehicle_77" depart="352" departLane="best" departSpeed="speedLimit" route="route_1" />
    <vehicle id="vehicle_86" depart="357" departLane="best" departSpeed="speedLimit" route="route_11" />
    <vehicle id="vehicle_87" depart="358" departLane="best" departSpeed="speedLimit" route="route_11" />
    <vehicle id="vehicle_88" depart="361" departLane="best" departSpeed="speedLimit" route="route_11" />
    <vehicle id="vehicle_1003" depart="364" departLane="best" departSpeed="speedLimit" route="route_7" />
    <vehicle id="vehicle_89" depart="368" departLane="best" departSpeed="speedLimit" route="route_1" />
    <vehicle id="vehicle_90" depart="369" departLane="best" departSpeed="speedLimit" route="route_1" />
    <vehicle id="vehicle_1004" depart="370" departLane="best" departSpeed="speedLimit" route="route_7" />
    <vehicle id="vehicle_1005" depart="372" departLane="best" departSpeed="speedLimit" route="route_7" />
    <vehicle id="vehicle_1006" depart="376" departLane="best" departSpeed="speedLimit" route="route_7" />
    <vehicle id="vehicle_1007" depart="376" departLane="best" departSpeed="speedLimit" route="route_7" />
    <vehicle id="vehicle_1008" depart="378" departLane="best" departSpeed="speedLimit" route="route_6" />
    <vehicle id="vehicle_1009" depart="378" departLane="best" departSpeed="speedLimit" route="route_8" />
    <vehicle id="vehicle_1010" depart="380" departLane="best" departSpeed="speedLimit" route="route_7" />
    <vehicle id="vehicle_91" depart="386" departLane="best" departSpeed="speedLimit" route="route_1" />
    <vehicle id="vehicle_1011" depart="386" departLane="best" departSpeed="speedLimit" route="route_7" />
    <vehicle id="vehicle_1012" depart="388" departLane="best" departSpeed="speedLimit" route="route_7" />
    <vehicle id="vehicle_1013" depart="394" departLane="best" departSpeed="speedLimit" route="route_6" />
    <vehicle id="vehicle_100" depart="396" departLane="best" departSpeed="speedLimit" route="route_4" />
    <vehicle id="vehicle_1014" depart="396" departLane="best" departSpeed="speedLimit" route="route_7" />
    <vehicle id="vehicle_92" depart="401" departLane="best" departSpeed="speedLimit" route="route_1" />
    <vehicle id="vehicle_93" depart="402" departLane="best" departSpeed="speedLimit" route="route_1" />
    <vehicle id="vehicle_1015" depart="402" departLane="best" departSpeed="speedLimit" route="route_7" />
    <vehicle id="vehicle_1016" depart="404" departLane="best" departSpeed="speedLimit" route="route_7" />
    <vehicle id="vehicle_1017" depart="406" departLane="best" departSpeed="speedLimit" route="route_7" />
    <vehicle id="vehicle_94" depart="409" departLane="best" departSpeed="speedLimit" route="route_1" />
    <vehicle id="vehicle_1018" depart="410" departLane="best" departSpeed="speedLimit" route="route_7" />
    <vehicle id="vehicle_95" depart="411" departLane="best" departSpeed="speedLimit" route="route_1" />
    <vehicle id="vehicle_1019" depart="414" departLane="best" departSpeed="speedLimit" route="route_7" />
    <vehicle id="vehicle_1020" depart="418" departLane="best" departSpeed="speedLimit" route="route_7" />
    <vehicle id="vehicle_1021" depart="424" departLane="best" departSpeed="speedLimit" route="route_6" />
    <vehicle id="vehicle_96" depart="427" departLane="best" departSpeed="speedLimit" route="route_1" />
    <vehicle id="vehicle_97" depart="428" departLane="best" departSpeed="speedLimit" route="route_1" />
    <vehicle id="vehicle_1022" depart="428" departLane="best" departSpeed="speedLimit" route="route_6" />
    <vehicle id="vehicle_1023" depart="430" departLane="best" departSpeed="speedLimit" route="route_7" />
    <vehicle id="vehicle_1024" depart="430" departLane="best" departSpeed="speedLimit" route="route_7" />
    <vehicle id="vehicle_99" depart="432" departLane="best" departSpeed="speedLimit" route="route_10" />
    <vehicle id="vehicle_1025" depart="432" departLane="best" departSpeed="speedLimit" route="route_7" />
    <vehicle id="vehicle_1026" depart="434" departLane="best" departSpeed="speedLimit" route="route_6" />
    <vehicle id="vehicle_102" depart="435" departLane="best" departSpeed="speedLimit" route="route_11" />
    <vehicle id="vehicle_98" depart="437" departLane="best" departSpeed="speedLimit" route="route_1" />
    <vehicle id="vehicle_1027" depart="438" departLane="best" departSpeed="speedLimit" route="route_6" />
    <vehicle id="vehicle_103" depart="445" departLane="best" departSpeed="speedLimit" route="route_11" />
    <vehicle id="vehicle_1028" depart="450" departLane="best" departSpeed="speedLimit" route="route_8" />
    <vehicle id="vehicle_101" depart="453" departLane="best" departSpeed="speedLimit" route="route_3" />
    <vehicle id="vehicle_1029" depart="454" departLane="best" departSpeed="speedLimit" route="route_6" />
    <vehicle id="vehicle_1030" depart="460" departLane="best" departSpeed="speedLimit" route="route_6" />
    <vehicle id="vehicle_1031" depart="468" departLane="best" departSpeed="speedLimit" route="route_7" />
    <vehicle id="vehicle_104" depart="473" departLane="best" departSpeed="speedLimit" route="route_1" />
    <vehicle id="vehicle_1032" depart="476" departLane="best" departSpeed="speedLimit" route="route_7" />
    <vehicle id="vehicle_1033" depart="478" departLane="best" departSpeed="speedLimit" route="route_7" />
    <vehicle id="vehicle_1034" depart="482" departLane="best" departSpeed="speedLimit" route="route_7" />
    <vehicle id="vehicle_1035" depart="482" departLane="best" departSpeed="speedLimit" route="route_7" />
    <vehicle id="vehicle_1036" depart="484" departLane="best" departSpeed="speedLimit" route="route_7" />
    <vehicle id="vehicle_1037" depart="484" departLane="best" departSpeed="speedLimit" route="route_7" />
    <vehicle id="vehicle_1038" depart="486" departLane="best" departSpeed="speedLimit" route="route_7" />
    <vehicle id="vehicle_1039" depart="488" departLane="best" departSpeed="speedLimit" route="route_7" />
    <vehicle id="vehicle_1040" depart="490" departLane="best" departSpeed="speedLimit" route="route_7" />
    <vehicle id="vehicle_105" depart="491" departLane="best" departSpeed="speedLimit" route="route_9" />
    <vehicle id="vehicle_106" depart="493" departLane="best" departSpeed="speedLimit" route="route_1" />
    <vehicle id="vehicle_107" depart="493" departLane="best" departSpeed="speedLimit" route="route_1" />
    <vehicle id="vehicle_1041" depart="494" departLane="best" departSpeed="speedLimit" route="route_7" />
    <vehicle id="vehicle_1042" depart="494" departLane="best" departSpeed="speedLimit" route="route_6" />
    <vehicle id="vehicle_1043" depart="494" departLane="best" departSpeed="speedLimit" route="route_6" />
    <vehicle id="vehicle_108" depart="497" departLane="best" departSpeed="speedLimit" route="route_1" />
    <vehicle id="vehicle_1044" depart="498" departLane="best" departSpeed="speedLimit" route="route_7" />
    <vehicle id="vehicle_1045" depart="498" departLane="best" departSpeed="speedLimit" route="route_6" />
    <vehicle id="vehicle_1046" depart="500" departLane="best" departSpeed="speedLimit" route="route_7" />
    <vehicle id="vehicle_109" depart="507" departLane="best" departSpeed="speedLimit" route="route_1" />
    <vehicle id="vehicle_1047" depart="510" departLane="best" departSpeed="speedLimit" route="route_7" />
    <vehicle id="vehicle_1048" depart="510" departLane="best" departSpeed="speedLimit" route="route_6" />
    <vehicle id="vehicle_1049" depart="514" departLane="best" departSpeed="speedLimit" route="route_6" />
    <vehicle id="vehicle_1050" depart="516" departLane="best" departSpeed="speedLimit" route="route_6" />
    <vehicle id="vehicle_1051" depart="518" departLane="best" departSpeed="speedLimit" route="route_7" />
    <vehicle id="vehicle_111" depart="519" departLane="best" departSpeed="speedLimit" route="route_11" />
    <vehicle id="vehicle_1052" depart="520" departLane="best" departSpeed="speedLimit" route="route_8" />
    <vehicle id="vehicle_1053" depart="522" departLane="best" departSpeed="speedLimit" route="route_6" />
    <vehicle id="vehicle_112" depart="524" departLane="best" departSpeed="speedLimit" route="route_11" />
    <vehicle id="vehicle_1054" depart="524" departLane="best" departSpeed="speedLimit" route="route_6" />
    <vehicle id="vehicle_110" depart="525" departLane="best" departSpeed="speedLimit" route="route_1" />
    <vehicle id="vehicle_1055" depart="528" departLane="best" departSpeed="speedLimit" route="route_7" />
    <vehicle id="vehicle_113" depart="529" departLane="best" departSpeed="speedLimit" route="route_9" />