<?xml version="1.0" encoding="UTF-8"?>

<routes>
    <vType id="typeNS" length="7.00" minGap="3.00" maxSpeed="25.00" guiShape="bus" accel="0.8" decel="4.5" sigma="0.5"/>
    <vType id="typeWE" length="5.00" minGap="2.50" maxSpeed="16.67" guiShape="passenger" accel="0.8" decel="4.5" sigma="0.5"/>
    <route edges="-gneE7 gneE5" color="yellow" id="route_0"/>
    <route edges="-gneE7 gneE6" color="yellow" id="route_1"/>
    <route edges="-gneE4 gneE5" color="yellow" id="route_10"/>
    <route edges="-gneE4 gneE6" color="yellow" id="route_11"/>
    <route edges="-gneE7 gneE4" color="yellow" id="route_2"/>
    <route edges="-gneE5 gneE6" color="yellow" id="route_3"/>
    <route edges="-gneE5 gneE4" color="yellow" id="route_4"/>
    <route edges="-gneE5 gneE7" color="yellow" id="route_5"/>
    <route edges="-gneE6 gneE4" color="yellow" id="route_6"/>
    <route edges="-gneE6 gneE7" color="yellow" id="route_7"/>
    <route edges="-gneE6 gneE5" color="yellow" id="route_8"/>
    <route edges="-gneE4 gneE7" color="yellow" id="route_9"/>
    <vehicle id="vehicle_2" depart="2" departLane="best" departSpeed="speedLimit" route="route_4" />
    <vehicle id="vehicle_3" depart="3" departLane="best" departSpeed="speedLimit" route="route_5" />
    <vehicle id="vehicle_4" depart="3" departLane="best" departSpeed="speedLimit" route="route_5" />
    <vehicle id="vehicle_5" depart="4" departLane="best" departSpeed="speedLimit" route="route_3" />
    <vehicle id="vehicle_6" depart="4" departLane="best" departSpeed="speedLimit" route="route_5" />
    <vehicle id="vehicle_7" depart="5" departLane="best" departSpeed="speedLimit" route="route_5" />
    <vehicle id="vehicle_8" depart="5" departLane="best" departSpeed="speedLimit" route="route_5" />
    <vehicle id="vehicle_9" depart="6" departLane="best" departSpeed="speedLimit" route="route_4" />
    <vehicle id="vehicle_0" depart="7" departLane="best" departSpeed="speedLimit" route="route_1" />
    <vehicle id="vehicle_30" depart="8" departLane="best" departSpeed="speedLimit" route="route_11" />
    <vehicle id="vehicle_1" depart="12" departLane="best" departSpeed="speedLimit" route="route_0" />
    <vehicle id="vehicle_1174" depart="26" departLane="best" departSpeed="speedLimit" route="route_7" />
    <vehicle id="vehicle_1175" depart="28" departLane="best" departSpeed="speedLimit" route="route_7" />
    <vehicle id="vehicle_1176" depart="36" departLane="best" departSpeed="speedLimit" route="route_7" />
    <vehicle id="vehicle_1177" depart="36" departLane="best" departSpeed="speedLimit" route="route_7" />
    <vehicle id="vehicle_10" depart="37" departLane="best" departSpeed="speedLimit" route="route_5" />
    <vehicle id="vehicle_11" depart="37" departLane="best" departSpeed="speedLimit" route="route_5" />
    <vehicle id="vehicle_12" depart="38" departLane="best" departSpeed="speedLimit" route="route_4" />
    <vehicle id="vehicle_1178" depart="40" departLane="best" departSpeed="speedLimit" route="route_6" />
    <vehicle id="vehicle_13" depart="42" departLane="best" departSpeed="speedLimit" route="route_5" />
    <vehicle id="vehicle_1179" depart="44" departLane="best" departSpeed="speedLimit" route="route_7" />
    <vehicle id="vehicle_1180" depart="48" departLane="best" departSpeed="speedLimit" route="route_7" />
    <vehicle id="vehicle_1181" depart="52" departLane="best" departSpeed="speedLimit" route="route_7" />
    <vehicle id="vehicle_14" depart="56" departLane="best" departSpeed="speedLimit" route="route_1" />
    <vehicle id="vehicle_15" depart="57" departLane="best" departSpeed="speedLimit" route="route_1" />
    <vehicle id="vehicle_16" depart="57" departLane="best" departSpeed="speedLimit" route="route_1" />
    <vehicle id="vehicle_17" depart="58" departLane="best" departSpeed="speedLimit" route="route_1" />
    <vehicle id="vehicle_18" depart="58" departLane="best" departSpeed="speedLimit" route="route_1" />
    <vehicle id="vehicle_19" depart="59" departLane="best" departSpeed="speedLimit" route="route_1" />
    <vehicle id="vehicle_20" depart="60" departLane="best" departSpeed="speedLimit" route="route_1" />
    <vehicle id="vehicle_21" depart="62" departLane="best" departSpeed="speedLimit" route="route_1" />
    <vehicle id="vehicle_1182" depart="62" departLane="best" departSpeed="speedLimit" route="route_7" />
    <vehicle id="vehicle_1183" depart="64" departLane="best" departSpeed="speedLimit" route="route_7" />
    <vehicle id="vehicle_26" depart="65" departLane="best" departSpeed="speedLimit" route="route_5" />
    <vehicle id="vehicle_27" depart="66" departLane="best" departSpeed="speedLimit" route="route_5" />
    <vehicle id="vehicle_31" depart="68" departLane="best" departSpeed="speedLimit" route="route_11" />
    <vehicle id="vehicle_1184" depart="68" departLane="best" departSpeed="speedLimit" route="route_7" />
    <vehicle id="vehicle_22" depart="70" departLane="best" departSpeed="speedLimit" route="route_1" />
    <vehicle id="vehicle_1185" depart="70" departLane="best" departSpeed="speedLimit" route="route_7" />
    <vehicle id="vehicle_1186" depart="72" departLane="best" departSpeed="speedLimit" route="route_7" />
    <vehicle id="vehicle_1187" depart="74" departLane="best" departSpeed="speedLimit" route="route_7" />
    <vehicle id="vehicle_1188" depart="76" departLane="best" departSpeed="speedLimit" route="route_7" />
    <vehicle id="vehicle_1189" depart="76" departLane="best" departSpeed="speedLimit" route="route_7" />
    <vehicle id="vehicle_1190" depart="78" departLane="best" departSpeed="speedLimit" route="route_7" />
    <vehicle id="vehicle_1191" depart="78" departLane="best" departSpeed="speedLimit" route="route_7" />
    <vehicle id="vehicle_28" depart="79" departLane="best" departSpeed="speedLimit" route="route_3" />
    <vehicle id="vehicle_1192" depart="80" departLane="best" departSpeed="speedLimit" route="route_7" />
    <vehicle id="vehicle_1193" depart="82" departLane="best" departSpeed="speedLimit" route="route_7" />
    <vehicle id="vehicle_32" depart="84" departLane="best" departSpeed="speedLimit" route="route_9" />
    <vehicle id="vehicle_1194" depart="84" departLane="best" departSpeed="speedLimit" route="route_7" />
    <vehicle id="vehicle_23" depart="85" departLane="best" departSpeed="speedLimit" route="route_1" />
    <vehicle id="vehicle_24" depart="88" departLane="best" departSpeed="speedLimit" route="route_1" />
    <vehicle id="vehicle_1195" depart="88" departLane="best" departSpeed="speedLimit" route="route_7" />
    <vehicle id="vehicle_25" depart="91" departLane="best" departSpeed="speedLimit" route="route_1" />
    <vehicle id="vehicle_29" depart="93" departLane="best" departSpeed="speedLimit" route="route_3" />
    <vehicle id="vehicle_33" depart="96" departLane="best" departSpeed="speedLimit" route="route_9" />
    <vehicle id="vehicle_1196" depart="102" departLane="best" departSpeed="speedLimit" route="route_7" />
    <vehicle id="vehicle_34" depart="108" departLane="best" departSpeed="speedLimit" route="route_1" />
    <vehicle id="vehicle_36" depart="115" departLane="best" departSpeed="speedLimit" route="route_9" />
    <vehicle id="vehicle_35" depart="116" departLane="best" departSpeed="speedLimit" route="route_0" />
    <vehicle id="vehicle_39" depart="127" departLane="best" departSpeed="speedLimit" route="route_1" />
    <vehicle id="vehicle_1197" depart="128" departLane="best" departSpeed="speedLimit" route="route_7" />
    <vehicle id="vehicle_1198" depart="130" departLane="best" departSpeed="speedLimit" route="route_7" />
    <vehicle id="vehicle_40" depart="134" departLane="best" departSpeed="speedLimit" route="route_1" />
    <vehicle id="vehicle_41" depart="135" departLane="best" departSpeed="speedLimit" route="route_1" />
    <vehicle id="vehicle_42" depart="136" departLane="best" departSpeed="speedLimit" route="route_1" />
    <vehicle id="vehicle_43" depart="136" departLane="best" departSpeed="speedLimit" route="route_1" />
    <vehicle id="vehicle_1199" depart="136" departLane="best" departSpeed="speedLimit" route="route_7" />
    <vehicle id="vehicle_37" depart="137" departLane="best" departSpeed="speedLimit" route="route_5" />
    <vehicle id="vehicle_44" depart="138" departLane="best" departSpeed="speedLimit" route="route_1" />
    <vehicle id="vehicle_45" depart="138" departLane="best" departSpeed="speedLimit" route="route_1" />
    <vehicle id="vehicle_46" depart="139" departLane="best" departSpeed="speedLimit" route="route_1" />
    <vehicle id="vehicle_1200" depart="140" departLane="best" departSpeed="speedLimit" route="route_7" />
    <vehicle id="vehicle_1201" depart="140" departLane="best" departSpeed="speedLimit" route="route_7" />
    <vehicle id="vehicle_38" depart="142" departLane="best" departSpeed="speedLimit" route="route_3" />
    <vehicle id="vehicle_47" depart="144" departLane="best" departSpeed="speedLimit" route="route_1" />
    <vehicle id="vehicle_1202" depart="144" departLane="best" departSpeed="speedLimit" route="route_7" />
    <vehicle id="vehicle_48" depart="145" departLane="best" departSpeed="speedLimit" route="route_1" />
    <vehicle id="vehicle_49" depart="145" departLane="best" departSpeed="speedLimit" route="route_1" />
    <vehicle id="vehicle_50" depart="147" departLane="best" departSpeed="speedLimit" route="route_1" />
    <vehicle id="vehicle_56" depart="147" departLane="best" departSpeed="speedLimit" route="route_5" />
    <vehicle id="vehicle_1203" depart="148" departLane="best" departSpeed="speedLimit" route="route_7" />
    <vehicle id="vehicle_51" depart="149" departLane="best" departSpeed="speedLimit" route="route_1" />
    <vehicle id="vehicle_52" depart="150" departLane="best" departSpeed="speedLimit" route="route_1" />
    <vehicle id="vehicle_1204" depart="150" departLane="best" departSpeed="speedLimit" route="route_8" />
    <vehicle id="vehicle_53" depart="151" departLane="best" departSpeed="speedLimit" route="route_1" />
    <vehicle id="vehicle_1205" depart="152" departLane="best" departSpeed="speedLimit" route="route_7" />
    <vehicle id="vehicle_1206" depart="152" departLane="best" departSpeed="speedLimit" route="route_7" />
    <vehicle id="vehicle_54" depart="153" departLane="best" departSpeed="speedLimit" route="route_1" />
    <vehicle id="vehicle_1207" depart="154" departLane="best" departSpeed="speedLimit" route="route_7" />
    <vehicle id="vehicle_55" depart="157" departLane="best" departSpeed="speedLimit" route="route_2" />
    <vehicle id="vehicle_1208" depart="158" departLane="best" departSpeed="speedLimit" route="route_8" />
    <vehicle id="vehicle_57" depart="162" departLane="best" departSpeed="speedLimit" route="route_1" />
    <vehicle id="vehicle_1209" depart="162" departLane="best" departSpeed="speedLimit" route="route_8" />
    <vehicle id="vehicle_1210" depart="162" departLane="best" departSpeed="speedLimit" route="route_7" />
    <vehicle id="vehicle_58" depart="164" departLane="best" departSpeed="speedLimit" route="route_1" />
    <vehicle id="vehicle_1211" depart="166" departLane="best" departSpeed="speedLimit" route="route_7" />
    <vehicle id="vehicle_59" depart="167" departLane="best" departSpeed="speedLimit" route="route_1" />
    <vehicle id="vehicle_1212" depart="168" departLane="best" departSpeed="speedLimit" route="route_7" />
    <vehicle id="vehicle_60" depart="170" departLane="best" departSpeed="speedLimit" route="route_1" />
    <vehicle id="vehicle_61" depart="174" departLane="best" departSpeed="speedLimit" route="route_1" />
    <vehicle id="vehicle_1213" depart="174" departLane="best" departSpeed="speedLimit" route="route_7" />
    <vehicle id="vehicle_1214" depart="176" departLane="best" departSpeed="speedLimit" route="route_8" />
    <vehicle id="vehicle_63" depart="177" departLane="best" departSpeed="speedLimit" route="route_5" />
    <vehicle id="vehicle_64" depart="177" departLane="best" departSpeed="speedLimit" route="route_3" />
    <vehicle id="vehicle_65" depart="177" departLane="best" departSpeed="speedLimit" route="route_3" />
    <vehicle id="vehicle_62" depart="178" departLane="best" departSpeed="speedLimit" route="route_1" />
    <vehicle id="vehicle_1215" depart="180" departLane="best" departSpeed="speedLimit" route="route_8" />
    <vehicle id="vehicle_66" depart="186" departLane="best" departSpeed="speedLimit" route="route_1" />
    <vehicle id="vehicle_1216" depart="186" departLane="best" departSpeed="speedLimit" route="route_7" />
    <vehicle id="vehicle_1217" depart="188" departLane="best" departSpeed="speedLimit" route="route_7" />
    <vehicle id="vehicle_67" depart="192" departLane="best" departSpeed="speedLimit" route="route_0" />
    <vehicle id="vehicle_68" depart="194" departLane="best" departSpeed="speedLimit" route="route_1" />
    <vehicle id="vehicle_69" depart="203" departLane="best" departSpeed="speedLimit" route="route_1" />
    <vehicle id="vehicle_74" depart="204" departLane="best" departSpeed="speedLimit" route="route_10" />
    <vehicle id="vehicle_75" depart="204" departLane="best" departSpeed="speedLimit" route="route_10" />
    <vehicle id="vehicle_70" depart="208" departLane="best" departSpeed="speedLimit" route="route_1" />
    <vehicle id="vehicle_71" depart="209" departLane="best" departSpeed="speedLimit" route="route_1" />
    <vehicle id="vehicle_1218" depart="212" departLane="best" departSpeed="speedLimit" route="route_7" />
    <vehicle id="vehicle_72" depart="220" departLane="best" departSpeed="speedLimit" route="route_1" />
    <vehicle id="vehicle_73" depart="224" departLane="best" departSpeed="speedLimit" route="route_1" />
    <vehicle id="vehicle_1219" depart="236" departLane="best" departSpeed="speedLimit" route="route_7" />
    <vehicle id="vehicle_76" depart="238" departLane="best" departSpeed="speedLimit" route="route_10" />
    <vehicle id="vehicle_1220" depart="242" departLane="best" departSpeed="speedLimit" route="route_7" />
    <vehicle id="vehicle_1221" depart="242" departLane="best" departSpeed="speedLimit" route="route_7" />
    <vehicle id="vehicle_1222" depart="244" departLane="best" departSpeed="speedLimit" route="route_7" />
    <vehicle id="vehicle_1223" depart="244" departLane="best" departSpeed="speedLimit" route="route_7" />
    <vehicle id="vehicle_1224" depart="246" departLane="best" departSpeed="speedLimit" route="route_7" />
    <vehicle id="vehicle_77" depart="251" departLane="best" departSpeed="speedLimit" route="route_11" />
    <vehicle id="vehicle_78" depart="252" departLane="best" departSpeed="speedLimit" route="route_1" />
    <vehicle id="vehicle_79" depart="252" departLane="best" departSpeed="speedLimit" route="route_1" />
    <vehicle id="vehicle_1225" depart="252" departLane="best" departSpeed="speedLimit" route="route_7" />
    <vehicle id="vehicle_1226" depart="252" departLane="best" departSpeed="speedLimit" route="route_7" />
    <vehicle id="vehicle_1227" depart="256" departLane="best" departSpeed="speedLimit" route="route_7" />
    <vehicle id="vehicle_1228" depart="258" departLane="best" departSpeed="speedLimit" route="route_8" />
    <vehicle id="vehicle_80" depart="260" departLane="best" departSpeed="speedLimit" route="route_1" />
    <vehicle id="vehicle_1229" depart="260" departLane="best" departSpeed="speedLimit" route="route_7" />
    <vehicle id="vehicle_81" depart="262" departLane="best" departSpeed="speedLimit" route="route_1" />
    <vehicle id="vehicle_82" depart="262" departLane="best" departSpeed="speedLimit" route="route_1" />
    <vehicle id="vehicle_1230" depart="262" departLane="best" departSpeed="speedLimit" route="route_7" />
    <vehicle id="vehicle_83" depart="263" departLane="best" departSpeed="speedLimit" route="route_1" />
    <vehicle id="vehicle_84" depart="263" departLane="best" departSpeed="speedLimit" route="route_1" />
    <vehicle id="vehicle_1231" depart="264" departLane="best" departSpeed="speedLimit" route="route_7" />
    <vehicle id="vehicle_1232" depart="264" departLane="best" departSpeed="speedLimit" route="route_8" />
    <vehicle id="vehicle_1233" depart="268" departLane="best" departSpeed="speedLimit" route="route_7" />
    <vehicle id="vehicle_1234" depart="270" departLane="best" departSpeed="speedLimit" route="route_7" />
    <vehicle id="vehicle_85" depart="276" departLane="best" departSpeed="speedLimit" route="route_1" />
    <vehicle id="vehicle_99" depart="283" departLane="best" departSpeed="speedLimit" route="route_10" />
    <vehicle id="vehicle_91" depart="287" departLane="best" departSpeed="speedLimit" route="route_3" />
    <vehicle id="vehicle_94" depart="287" departLane="best" departSpeed="speedLimit" route="route_3" />
    <vehicle id="vehicle_1235" depart="288" departLane="best" departSpeed="speedLimit" route="route_7" />
    <vehicle id="vehicle_95" depart="289" departLane="best" departSpeed="speedLimit" route="route_3" />
    <vehicle id="vehicle_1236" depart="290" departLane="best" departSpeed="speedLimit" route="route_7" />
    <vehicle id="vehicle_1237" depart="290" departLane="best" departSpeed="speedLimit" route="route_7" />
    <vehicle id="vehicle_1238" depart="292" departLane="best" departSpeed="speedLimit" route="route_7" />
    <vehicle id="vehicle_1239" depart="292" departLane="best" departSpeed="speedLimit" route="route_7" />
    <vehicle id="vehicle_86" depart="293" departLane="best" departSpeed="speedLimit" route="route_1" />
    <vehicle id="vehicle_1240" depart="294" departLane="best" departSpeed="speedLimit" route="route_7" />
    <vehicle id="vehicle_1241" depart="294" departLane="best" departSpeed="speedLimit" route="route_7" />
    <vehicle id="vehicle_87" depart="295" departLane="best" departSpeed="speedLimit" route="route_1" />
    <vehicle id="vehicle_1242" depart="296" departLane="best" departSpeed="speedLimit" route="route_7" />
    <vehicle id="vehicle_88" depart="298" departLane="best" departSpeed="speedLimit" route="route_1" />
    <vehicle id="vehicle_1243" depart="298" departLane="best" departSpeed="speedLimit" route="route_7" />
    <vehicle id="vehicle_89" depart="301" departLane="best" departSpeed="speedLimit" route="route_1" />
    <vehicle id="vehicle_90" depart="301" departLane="best" departSpeed="speedLimit" route="route_1" />
    <vehicle id="vehicle_92" depart="308" departLane="best" departSpeed="speedLimit" route="route_1" />
    <vehicle id="vehicle_96" depart="311" departLane="best" departSpeed="speedLimit" route="route_5" />
    <vehicle id="vehicle_100" depart="312" departLane="best" departSpeed="speedLimit" route="route_4" />
    <vehicle id="vehicle_93" depart="315" departLane="best" departSpeed="speedLimit" route="route_1" />
    <vehicle id="vehicle_97" depart="323" departLane="best" departSpeed="speedLimit" route="route_1" />
    <vehicle id="vehicle_98" depart="323" departLane="best" departSpeed="speedLimit" route="route_1" />
    <vehicle id="vehicle_1244" depart="340" departLane="best" departSpeed="speedLimit" route="route_7" />
    <vehicle id="vehicle_101" depart="342" departLane="best" departSpeed="speedLimit" route="route_1" />
    <vehicle id="vehicle_1245" depart="342" departLane="best" departSpeed="speedLimit" route="route_7" />
    <vehicle id="vehicle_1246" depart="348" departLane="best" departSpeed="speedLimit" route="route_7" />
    <vehicle id="vehicle_102" depart="352" departLane="best" departSpeed="speedLimit" route="route_1" />
    <vehicle id="vehicle_1247" depart="354" departLane="best" departSpeed="speedLimit" route="route_8" />
    <vehicle id="vehicle_1248" depart="354" departLane="best" departSpeed="speedLimit" route="route_7" />
    <vehicle id="vehicle_103" depart="356" departLane="best" departSpeed="speedLimit" route="route_1" />
    <vehicle id="vehicle_1249" depart="358" departLane="best" departSpeed="speedLimit" route="route_7" />
    <vehicle id="vehicle_104" depart="362" departLane="best" departSpeed="speedLimit" route="route_1" />
    <vehicle id="vehicle_1250" depart="364" departLane="best" departSpeed="speedLimit" route="route_7" />
    <vehicle id="vehicle_1251" depart="364" departLane="best" departSpeed="speedLimit" route="route_7" />
    <vehicle id="vehicle_1252" depart="366" departLane="best" departSpeed="speedLimit" route="route_7" />
    <vehicle id="vehicle_1253" depart="368" departLane="best" departSpeed="speedLimit" route="route_7" />
    <vehicle id="vehicle_1254" depart="370" departLane="best" departSpeed="speedLimit" route="route_7" />
    <vehicle id="vehicle_1255" depart="372" departLane="best" departSpeed="speedLimit" route="route_7" />
    <vehicle id="vehicle_1256" depart="374" departLane="best" departSpeed="speedLimit" route="route_7" />
    <vehicle id="vehicle_105" depart="377" departLane="best" departSpeed="speedLimit" route="route_3" />
    <vehicle id="vehicle_1257" depart="378" departLane="best" departSpeed="speedLimit" route="route_7" />
    <vehicle id="vehicle_1258" depart="378" departLane="best" departSpeed="speedLimit" route="route_7" />
    <vehicle id="vehicle_1259" depart="378" departLane="best" departSpeed="speedLimit" route="route_8" />
    <vehicle id="vehicle_1260" depart="380" departLane="best" departSpeed="speedLimit" route="route_7" />
    <vehicle id="vehicle_1261" depart="382" departLane="best" departSpeed="speedLimit" route="route_7" />
    <vehicle id="vehicle_1262" depart="382" departLane="best" departSpeed="speedLimit" route="route_7" />
    <vehicle id="vehicle_106" depart="385" departLane="best" departSpeed="speedLimit" route="route_2" />
    <vehicle id="vehicle_1263" depart="388" departLane="best" departSpeed="speedLimit" route="route_7" />
    <vehicle id="vehicle_1264" depart="390" departLane="best" departSpeed="speedLimit" route="route_7" />
    <vehicle id="vehicle_1265" depart="392" departLane="best" departSpeed="speedLimit" route="route_7" />
    <vehicle id="vehicle_1266" depart="392" departLane="best" departSpeed="speedLimit" route="route_7" />
    <vehicle id="vehicle_1267" depart="394" departLane="best" departSpeed="speedLimit" route="route_7" />
    <vehicle id="vehicle_114" depart="395" departLane="best" departSpeed="speedLimit" route="route_3" />
    <vehicle id="vehicle_1268" depart="396" departLane="best" departSpeed="speedLimit" route="route_7" />
    <vehicle id="vehicle_1269" depart="398" departLane="best" departSpeed="speedLimit" route="route_7" />
    <vehicle id="vehicle_1270" depart="400" departLane="best" departSpeed="speedLimit" route="route_6" />
    <vehicle id="vehicle_107" depart="402" departLane="best" departSpeed="speedLimit" route="route_1" />
    <vehicle id="vehicle_108" depart="402" departLane="best" departSpeed="speedLimit" route="route_1" />
    <vehicle id="vehicle_109" depart="404" departLane="best" departSpeed="speedLimit" route="route_1" />
    <vehicle id="vehicle_115" depart="405" departLane="best" departSpeed="speedLimit" route="route_3" />
    <vehicle id="vehicle_110" depart="406" departLane="best" departSpeed="speedLimit" route="route_1" />
    <vehicle id="vehicle_111" depart="409" departLane="best" departSpeed="speedLimit" route="route_1" />
    <vehicle id="vehicle_112" depart="412" departLane="best" departSpeed="speedLimit" route="route_2" />
    <vehicle id="vehicle_113" depart="412" departLane="best" departSpeed="speedLimit" route="route_0" />
    <vehicle id="vehicle_116" depart="415" departLane="best" departSpeed="speedLimit" route="route_5" />
    <vehicle id="vehicle_120" depart="420" departLane="best" departSpeed="speedLimit" route="route_1" />
    <vehicle id="vehicle_121" depart="421" departLane="best" departSpeed="speedLimit" route="route_1" />
    <vehicle id="vehicle_1271" depart="424" departLane="best" departSpeed="speedLimit" route="route_7" />
    <vehicle id="vehicle_117" depart="425" departLane="best" departSpeed="speedLimit" route="route_5" />
    <vehicle id="vehicle_118" depart="429" departLane="best" departSpeed="speedLimit" route="route_5" />
    <vehicle id="vehicle_1272" depart="430" departLane="best" departSpeed="speedLimit" route="route_8" />
    <vehicle id="vehicle_122" depart="433" departLane="best" departSpeed="speedLimit" route="route_1" />
    <vehicle id="vehicle_123" depart="435" departLane="best" departSpeed="speedLimit" route="route_1" />
    <vehicle id="vehicle_124" depart="436" departLane="best" departSpeed="speedLimit" route="route_1" />
    <vehicle id="vehicle_119" depart="440" departLane="best" departSpeed="speedLimit" route="route_3" />
    <vehicle id="vehicle_130" depart="445" departLane="best" departSpeed="speedLimit" route="route_11" />
    <vehicle id="vehicle_125" depart="450" departLane="best" departSpeed="speedLimit" route="route_1" />
    <vehicle id="vehicle_126" depart="452" departLane="best" departSpeed="speedLimit" route="route_1" />
    <vehicle id="vehicle_127" depart="458" departLane="best" departSpeed="speedLimit" route="route_1" />
    <vehicle id="vehicle_1273" depart="458" departLane="best" departSpeed="speedLimit" route="route_7" />
    <vehicle id="vehicle_1274" depart="458" departLane="best" departSpeed="speedLimit" route="route_7" />
    <vehicle id="vehicle_1275" depart="460" departLane="best" departSpeed="speedLimit" route="route_7" />
    <vehicle id="vehicle_1276" depart="462" departLane="best" departSpeed="speedLimit" route="route_7" />
    <vehicle id="vehicle_131" depart="464" departLane="best" departSpeed="speedLimit" route="route_9" />
    <vehicle id="vehicle_1277" depart="464" departLane="best" departSpeed="speedLimit" route="route_7" />
    <vehicle id="vehicle_1278" depart="464" departLane="best" departSpeed="speedLimit" route="route_7" />
    <vehicle id="vehicle_128" depart="465" departLane="best" departSpeed="speedLimit" route="route_5" />
    <vehicle id="vehicle_129" depart="466" departLane="best" departSpeed="speedLimit" route="route_3" />
    <vehicle id="vehicle_1279" depart="468" departLane="best" departSpeed="speedLimit" route="route_7" />
    <vehicle id="vehicle_135" depart="473" departLane="best" departSpeed="speedLimit" route="route_4" />
    <vehicle id="vehicle_1280" depart="476" departLane="best" departSpeed="speedLimit" route="route_7" />
    <vehicle id="vehicle_132" depart="477" departLane="best" departSpeed="speedLimit" route="route_1" />
    <vehicle id="vehicle_136" depart="481" departLane="best" departSpeed="speedLimit" route="route_4" />
    <vehicle id="vehicle_133" depart="491" departLane="best" departSpeed="speedLimit" route="route_1" />
    <vehicle id="vehicle_134" depart="497" departLane="best" departSpeed="speedLimit" route="route_2" />
    <vehicle id="vehicle_137" depart="501" departLane="best" departSpeed="speedLimit" route="route_1" />
    <vehicle id="vehicle_138" depart="505" departLane="best" departSpeed="speedLimit" route="route_1" />
    <vehicle id="vehicle_139" depart="508" departLane="best" departSpeed="speedLimit" route="route_1" />
    <vehicle id="vehicle_1281" depart="510" departLane="best" departSpeed="speedLimit" route="route_7" />
    <vehicle id="vehicle_140" depart="514" departLane="best" departSpeed="speedLimit" route="route_1" />
    <vehicle id="vehicle_141" depart="515" departLane="best" departSpeed="speedLimit" route="route_2" />
    <vehicle id="vehicle_142" depart="522" departLane="best" departSpeed="speedLimit" route="route_5" />
    <vehicle id="vehicle_143" depart="526" departLane="best" departSpeed="speedLimit" route="route_1" />
    <vehicle id="vehicle_145" depart="526" departLane="best" departSpeed="speedLimit" route="route_11" />
    <vehicle id="vehicle_144" depart="532" departLane="best" departSpeed="speedLimit" route="route_0" />
    <vehicle id="vehicle_169" depart="534" departLane="best" departSpeed="speedLimit" route="route_3" />
    <vehicle id="vehicle_170" depart="534" departLane="best" departSpeed="speedLimit" route="route_5" />
    <vehicle id="vehicle_146" depart="540" departLane="best" departSpeed="speedLimit" route="route_1" />
    <vehicle id="vehicle_147" depart="541" departLane="best" departSpeed="speedLimit" route="route_1" />
    <vehicle id="vehicle_148" depart="542" departLane="best" departSpeed="speedLimit" route="route_1" />
    <vehicle id="vehicle_149" depart="543" departLane="best" departSpeed="speedLimit" route="route_1" />
    <vehicle id="vehicle_150" depart="544" departLane="best" departSpeed="speedLimit" route="route_1" />
    <vehicle id="vehicle_1282" depart="544" departLane="best" departSpeed="speedLimit" route="route_7" />
    <vehicle id="vehicle_151" depart="545" departLane="best" departSpeed="speedLimit" route="route_1" />
    <vehicle id="vehicle_152" depart="545" departLane="best" departSpeed="speedLimit" route="route_1" />
    <vehicle id="vehicle_153" depart="546" departLane="best" departSpeed="speedLimit" route="route_2" />
    <vehicle id="vehicle_154" depart="549" departLane="best" departSpeed="speedLimit" route="route_1" />
    <vehicle id="vehicle_155" depart="550" departLane="best" departSpeed="speedLimit" route="route_1" />
    <vehicle id="vehicle_156" depart="550" departLane="best" departSpeed="speedLimit" route="route_1" />
    <vehicle id="vehicle_157" depart="551" departLane="best" departSpeed="speedLimit" route="route_1" />
    <vehicle id="vehicle_158" depart="552" departLane="best" departSpeed="speedLimit" route="route_1" />
    <vehicle id="vehicle_167" depart="553" departLane="best" departSpeed="speedLimit" route="route_11" />
    <vehicle id="vehicle_159" depart="555" departLane="best" departSpeed="speedLimit" route="route_0" />
    <vehicle id="vehicle_160" depart="556" departLane="best" departSpeed="speedLimit" route="route_1" />