<?xml version="1.0" encoding="UTF-8"?>

<routes>
    <vType id="typeNS" length="7.00" minGap="3.00" maxSpeed="25.00" guiShape="bus" accel="0.8" decel="4.5" sigma="0.5"/>
    <vType id="typeWE" length="5.00" minGap="2.50" maxSpeed="16.67" guiShape="passenger" accel="0.8" decel="4.5" sigma="0.5"/>
    <route edges="-gneE7 gneE5" color="yellow" id="route_0"/>
    <route edges="-gneE7 gneE6" color="yellow" id="route_1"/>
    <route edges="-gneE4 gneE5" color="yellow" id="route_10"/>
    <route edges="-gneE4 gneE6" color="yellow" id="route_11"/>
    <route edges="-gneE7 gneE4" color="yellow" id="route_2"/>
    <route edges="-gneE5 gneE6" color="yellow" id="route_3"/>
    <route edges="-gneE5 gneE4" color="yellow" id="route_4"/>
    <route edges="-gneE5 gneE7" color="yellow" id="route_5"/>
    <route edges="-gneE6 gneE4" color="yellow" id="route_6"/>
    <route edges="-gneE6 gneE7" color="yellow" id="route_7"/>
    <route edges="-gneE6 gneE5" color="yellow" id="route_8"/>
    <route edges="-gneE4 gneE7" color="yellow" id="route_9"/>
    <vehicle id="vehicle_0" depart="5" departLane="best" departSpeed="speedLimit" route="route_3" />
<vehicle id="vehicle_1" depart="6" departLane="best" departSpeed="speedLimit" route="route_4" />
<vehicle id="vehicle_3" depart="7" departLane="best" departSpeed="speedLimit" route="route_4" />
<vehicle id="vehicle_4" depart="8" departLane="best" departSpeed="speedLimit" route="route_4" />
<vehicle id="vehicle_5" depart="8" departLane="best" departSpeed="speedLimit" route="route_3" />
<vehicle id="vehicle_1165" depart="8" departLane="best" departSpeed="speedLimit" route="route_7" />
<vehicle id="vehicle_2" depart="9" departLane="best" departSpeed="speedLimit" route="route_0" />
<vehicle id="vehicle_7" depart="9" departLane="best" departSpeed="speedLimit" route="route_1" />
<vehicle id="vehicle_8" depart="9" departLane="best" departSpeed="speedLimit" route="route_1" />
<vehicle id="vehicle_1166" depart="10" departLane="best" departSpeed="speedLimit" route="route_6" />
<vehicle id="vehicle_1167" depart="18" departLane="best" departSpeed="speedLimit" route="route_7" />
<vehicle id="vehicle_9" depart="22" departLane="best" departSpeed="speedLimit" route="route_1" />
<vehicle id="vehicle_10" depart="32" departLane="best" departSpeed="speedLimit" route="route_1" />
<vehicle id="vehicle_1168" depart="32" departLane="best" departSpeed="speedLimit" route="route_7" />
<vehicle id="vehicle_1169" depart="32" departLane="best" departSpeed="speedLimit" route="route_7" />
<vehicle id="vehicle_6" depart="33" departLane="best" departSpeed="speedLimit" route="route_3" />
<vehicle id="vehicle_11" depart="42" departLane="best" departSpeed="speedLimit" route="route_1" />
<vehicle id="vehicle_12" depart="44" departLane="best" departSpeed="speedLimit" route="route_9" />
<vehicle id="vehicle_19" depart="45" departLane="best" departSpeed="speedLimit" route="route_9" />
<vehicle id="vehicle_1170" depart="48" departLane="best" departSpeed="speedLimit" route="route_7" />
<vehicle id="vehicle_1171" depart="52" departLane="best" departSpeed="speedLimit" route="route_7" />
<vehicle id="vehicle_1172" depart="52" departLane="best" departSpeed="speedLimit" route="route_7" />
<vehicle id="vehicle_13" depart="53" departLane="best" departSpeed="speedLimit" route="route_3" />
<vehicle id="vehicle_1173" depart="58" departLane="best" departSpeed="speedLimit" route="route_6" />
<vehicle id="vehicle_14" depart="60" departLane="best" departSpeed="speedLimit" route="route_1" />
<vehicle id="vehicle_1174" depart="62" departLane="best" departSpeed="speedLimit" route="route_7" />
<vehicle id="vehicle_1175" depart="62" departLane="best" departSpeed="speedLimit" route="route_7" />
<vehicle id="vehicle_15" depart="63" departLane="best" departSpeed="speedLimit" route="route_1" />
<vehicle id="vehicle_16" depart="63" departLane="best" departSpeed="speedLimit" route="route_1" />
<vehicle id="vehicle_1176" depart="64" departLane="best" departSpeed="speedLimit" route="route_7" />
<vehicle id="vehicle_18" depart="66" departLane="best" departSpeed="speedLimit" route="route_5" />
<vehicle id="vehicle_17" depart="67" departLane="best" departSpeed="speedLimit" route="route_0" />
<vehicle id="vehicle_1177" depart="68" departLane="best" departSpeed="speedLimit" route="route_8" />
<vehicle id="vehicle_1178" depart="68" departLane="best" departSpeed="speedLimit" route="route_7" />
<vehicle id="vehicle_1179" depart="74" departLane="best" departSpeed="speedLimit" route="route_7" />
<vehicle id="vehicle_20" depart="75" departLane="best" departSpeed="speedLimit" route="route_10" />
<vehicle id="vehicle_1180" depart="82" departLane="best" departSpeed="speedLimit" route="route_7" />
<vehicle id="vehicle_1181" depart="82" departLane="best" departSpeed="speedLimit" route="route_7" />
<vehicle id="vehicle_21" depart="83" departLane="best" departSpeed="speedLimit" route="route_10" />
<vehicle id="vehicle_1182" depart="84" departLane="best" departSpeed="speedLimit" route="route_7" />
<vehicle id="vehicle_22" depart="87" departLane="best" departSpeed="speedLimit" route="route_1" />
<vehicle id="vehicle_23" depart="88" departLane="best" departSpeed="speedLimit" route="route_1" />
<vehicle id="vehicle_24" depart="89" departLane="best" departSpeed="speedLimit" route="route_1" />
<vehicle id="vehicle_25" depart="90" departLane="best" departSpeed="speedLimit" route="route_1" />
<vehicle id="vehicle_26" depart="91" departLane="best" departSpeed="speedLimit" route="route_1" />
<vehicle id="vehicle_27" depart="93" departLane="best" departSpeed="speedLimit" route="route_1" />
<vehicle id="vehicle_28" depart="96" departLane="best" departSpeed="speedLimit" route="route_1" />
<vehicle id="vehicle_29" depart="98" departLane="best" departSpeed="speedLimit" route="route_1" />
<vehicle id="vehicle_1183" depart="98" departLane="best" departSpeed="speedLimit" route="route_7" />
<vehicle id="vehicle_1184" depart="98" departLane="best" departSpeed="speedLimit" route="route_7" />
<vehicle id="vehicle_30" depart="100" departLane="best" departSpeed="speedLimit" route="route_2" />
<vehicle id="vehicle_31" depart="101" departLane="best" departSpeed="speedLimit" route="route_1" />
<vehicle id="vehicle_32" depart="101" departLane="best" departSpeed="speedLimit" route="route_1" />
<vehicle id="vehicle_33" depart="102" departLane="best" departSpeed="speedLimit" route="route_2" />
<vehicle id="vehicle_34" depart="103" departLane="best" departSpeed="speedLimit" route="route_1" />
<vehicle id="vehicle_1185" depart="104" departLane="best" departSpeed="speedLimit" route="route_7" />
<vehicle id="vehicle_1186" depart="104" departLane="best" departSpeed="speedLimit" route="route_7" />
<vehicle id="vehicle_67" depart="105" departLane="best" departSpeed="speedLimit" route="route_11" />
<vehicle id="vehicle_68" depart="107" departLane="best" departSpeed="speedLimit" route="route_11" />
<vehicle id="vehicle_35" depart="112" departLane="best" departSpeed="speedLimit" route="route_1" />
<vehicle id="vehicle_36" depart="113" departLane="best" departSpeed="speedLimit" route="route_1" />
<vehicle id="vehicle_37" depart="114" departLane="best" departSpeed="speedLimit" route="route_1" />
<vehicle id="vehicle_1187" depart="114" departLane="best" departSpeed="speedLimit" route="route_7" />
<vehicle id="vehicle_1188" depart="114" departLane="best" departSpeed="speedLimit" route="route_7" />
<vehicle id="vehicle_38" depart="116" departLane="best" departSpeed="speedLimit" route="route_2" />
<vehicle id="vehicle_39" depart="116" departLane="best" departSpeed="speedLimit" route="route_1" />
<vehicle id="vehicle_1189" depart="116" departLane="best" departSpeed="speedLimit" route="route_7" />
<vehicle id="vehicle_1190" depart="118" departLane="best" departSpeed="speedLimit" route="route_7" />
<vehicle id="vehicle_40" depart="120" departLane="best" departSpeed="speedLimit" route="route_1" />
<vehicle id="vehicle_41" depart="120" departLane="best" departSpeed="speedLimit" route="route_1" />
<vehicle id="vehicle_42" depart="121" departLane="best" departSpeed="speedLimit" route="route_1" />
<vehicle id="vehicle_43" depart="121" departLane="best" departSpeed="speedLimit" route="route_1" />
<vehicle id="vehicle_44" depart="125" departLane="best" departSpeed="speedLimit" route="route_1" />
<vehicle id="vehicle_45" depart="126" departLane="best" departSpeed="speedLimit" route="route_1" />
<vehicle id="vehicle_46" depart="127" departLane="best" departSpeed="speedLimit" route="route_1" />
<vehicle id="vehicle_47" depart="129" departLane="best" departSpeed="speedLimit" route="route_1" />
<vehicle id="vehicle_48" depart="129" departLane="best" departSpeed="speedLimit" route="route_0" />
<vehicle id="vehicle_49" depart="130" departLane="best" departSpeed="speedLimit" route="route_1" />
<vehicle id="vehicle_50" depart="131" departLane="best" departSpeed="speedLimit" route="route_1" />
<vehicle id="vehicle_51" depart="135" departLane="best" departSpeed="speedLimit" route="route_0" />
<vehicle id="vehicle_52" depart="136" departLane="best" departSpeed="speedLimit" route="route_1" />
<vehicle id="vehicle_1191" depart="136" departLane="best" departSpeed="speedLimit" route="route_7" />
<vehicle id="vehicle_53" depart="138" departLane="best" departSpeed="speedLimit" route="route_5" />
<vehicle id="vehicle_54" depart="139" departLane="best" departSpeed="speedLimit" route="route_3" />
<vehicle id="vehicle_55" depart="140" departLane="best" departSpeed="speedLimit" route="route_3" />
<vehicle id="vehicle_56" depart="149" departLane="best" departSpeed="speedLimit" route="route_3" />
<vehicle id="vehicle_57" depart="152" departLane="best" departSpeed="speedLimit" route="route_2" />
<vehicle id="vehicle_58" depart="152" departLane="best" departSpeed="speedLimit" route="route_1" />
<vehicle id="vehicle_59" depart="154" departLane="best" departSpeed="speedLimit" route="route_1" />
<vehicle id="vehicle_60" depart="159" departLane="best" departSpeed="speedLimit" route="route_3" />
<vehicle id="vehicle_1192" depart="160" departLane="best" departSpeed="speedLimit" route="route_7" />
<vehicle id="vehicle_1193" depart="160" departLane="best" departSpeed="speedLimit" route="route_7" />
<vehicle id="vehicle_61" depart="161" departLane="best" departSpeed="speedLimit" route="route_0" />
<vehicle id="vehicle_62" depart="162" departLane="best" departSpeed="speedLimit" route="route_0" />
<vehicle id="vehicle_1194" depart="162" departLane="best" departSpeed="speedLimit" route="route_7" />
<vehicle id="vehicle_1195" depart="162" departLane="best" departSpeed="speedLimit" route="route_7" />
<vehicle id="vehicle_63" depart="163" departLane="best" departSpeed="speedLimit" route="route_1" />
<vehicle id="vehicle_64" depart="164" departLane="best" departSpeed="speedLimit" route="route_1" />
<vehicle id="vehicle_65" depart="165" departLane="best" departSpeed="speedLimit" route="route_1" />
<vehicle id="vehicle_66" depart="167" departLane="best" departSpeed="speedLimit" route="route_2" />
<vehicle id="vehicle_1196" depart="168" departLane="best" departSpeed="speedLimit" route="route_7" />
<vehicle id="vehicle_1197" depart="168" departLane="best" departSpeed="speedLimit" route="route_7" />
<vehicle id="vehicle_1198" depart="180" departLane="best" departSpeed="speedLimit" route="route_7" />
<vehicle id="vehicle_69" depart="181" departLane="best" departSpeed="speedLimit" route="route_1" />
<vehicle id="vehicle_1199" depart="184" departLane="best" departSpeed="speedLimit" route="route_7" />
<vehicle id="vehicle_1200" depart="186" departLane="best" departSpeed="speedLimit" route="route_7" />
<vehicle id="vehicle_1201" depart="186" departLane="best" departSpeed="speedLimit" route="route_7" />
<vehicle id="vehicle_70" depart="188" departLane="best" departSpeed="speedLimit" route="route_1" />
<vehicle id="vehicle_72" depart="191" departLane="best" departSpeed="speedLimit" route="route_3" />
<vehicle id="vehicle_71" depart="192" departLane="best" departSpeed="speedLimit" route="route_1" />
<vehicle id="vehicle_1202" depart="194" departLane="best" departSpeed="speedLimit" route="route_7" />
<vehicle id="vehicle_1203" depart="196" departLane="best" departSpeed="speedLimit" route="route_7" />
<vehicle id="vehicle_1204" depart="198" departLane="best" departSpeed="speedLimit" route="route_7" />
<vehicle id="vehicle_1205" depart="198" departLane="best" departSpeed="speedLimit" route="route_7" />
<vehicle id="vehicle_1206" depart="200" departLane="best" departSpeed="speedLimit" route="route_6" />
<vehicle id="vehicle_73" depart="201" departLane="best" departSpeed="speedLimit" route="route_5" />
<vehicle id="vehicle_1207" depart="204" departLane="best" departSpeed="speedLimit" route="route_7" />
<vehicle id="vehicle_1208" depart="204" departLane="best" departSpeed="speedLimit" route="route_8" />
<vehicle id="vehicle_74" depart="206" departLane="best" departSpeed="speedLimit" route="route_1" />
<vehicle id="vehicle_1209" depart="212" departLane="best" departSpeed="speedLimit" route="route_7" />
<vehicle id="vehicle_1210" depart="212" departLane="best" departSpeed="speedLimit" route="route_7" />
<vehicle id="vehicle_75" depart="214" departLane="best" departSpeed="speedLimit" route="route_1" />
<vehicle id="vehicle_76" depart="216" departLane="best" departSpeed="speedLimit" route="route_1" />
<vehicle id="vehicle_1211" depart="216" departLane="best" departSpeed="speedLimit" route="route_7" />
<vehicle id="vehicle_85" depart="218" departLane="best" departSpeed="speedLimit" route="route_5" />
<vehicle id="vehicle_77" depart="221" departLane="best" departSpeed="speedLimit" route="route_1" />
<vehicle id="vehicle_78" depart="222" departLane="best" departSpeed="speedLimit" route="route_1" />
<vehicle id="vehicle_79" depart="222" departLane="best" departSpeed="speedLimit" route="route_1" />
<vehicle id="vehicle_80" depart="224" departLane="best" departSpeed="speedLimit" route="route_1" />
<vehicle id="vehicle_81" depart="225" departLane="best" departSpeed="speedLimit" route="route_1" />
<vehicle id="vehicle_82" depart="226" departLane="best" departSpeed="speedLimit" route="route_1" />
<vehicle id="vehicle_83" depart="226" departLane="best" departSpeed="speedLimit" route="route_1" />
<vehicle id="vehicle_84" depart="227" departLane="best" departSpeed="speedLimit" route="route_1" />
<vehicle id="vehicle_86" depart="231" departLane="best" departSpeed="speedLimit" route="route_1" />
<vehicle id="vehicle_87" depart="232" departLane="best" departSpeed="speedLimit" route="route_1" />
<vehicle id="vehicle_88" depart="233" departLane="best" departSpeed="speedLimit" route="route_1" />
<vehicle id="vehicle_89" depart="234" departLane="best" departSpeed="speedLimit" route="route_1" />
<vehicle id="vehicle_90" depart="236" departLane="best" departSpeed="speedLimit" route="route_1" />
<vehicle id="vehicle_91" depart="236" departLane="best" departSpeed="speedLimit" route="route_1" />
<vehicle id="vehicle_92" depart="238" departLane="best" departSpeed="speedLimit" route="route_1" />
<vehicle id="vehicle_93" depart="240" departLane="best" departSpeed="speedLimit" route="route_1" />
<vehicle id="vehicle_94" depart="240" departLane="best" departSpeed="speedLimit" route="route_4" />
<vehicle id="vehicle_97" depart="245" departLane="best" departSpeed="speedLimit" route="route_1" />
<vehicle id="vehicle_98" depart="247" departLane="best" departSpeed="speedLimit" route="route_1" />
<vehicle id="vehicle_99" depart="253" departLane="best" departSpeed="speedLimit" route="route_1" />
<vehicle id="vehicle_100" depart="254" departLane="best" departSpeed="speedLimit" route="route_0" />
<vehicle id="vehicle_95" depart="255" departLane="best" departSpeed="speedLimit" route="route_5" />
<vehicle id="vehicle_96" depart="258" departLane="best" departSpeed="speedLimit" route="route_5" />
<vehicle id="vehicle_101" depart="260" departLane="best" departSpeed="speedLimit" route="route_1" />
<vehicle id="vehicle_102" depart="264" departLane="best" departSpeed="speedLimit" route="route_1" />
<vehicle id="vehicle_103" depart="265" departLane="best" departSpeed="speedLimit" route="route_9" />
<vehicle id="vehicle_1212" depart="268" departLane="best" departSpeed="speedLimit" route="route_7" />
<vehicle id="vehicle_104" depart="273" departLane="best" departSpeed="speedLimit" route="route_1" />
<vehicle id="vehicle_105" depart="273" departLane="best" departSpeed="speedLimit" route="route_1" />
<vehicle id="vehicle_1213" depart="276" departLane="best" departSpeed="speedLimit" route="route_7" />
<vehicle id="vehicle_1214" depart="276" departLane="best" departSpeed="speedLimit" route="route_7" />
<vehicle id="vehicle_106" depart="278" departLane="best" departSpeed="speedLimit" route="route_1" />
<vehicle id="vehicle_107" depart="278" departLane="best" departSpeed="speedLimit" route="route_1" />
<vehicle id="vehicle_108" depart="279" departLane="best" departSpeed="speedLimit" route="route_2" />
<vehicle id="vehicle_109" depart="280" departLane="best" departSpeed="speedLimit" route="route_1" />
<vehicle id="vehicle_111" depart="282" departLane="best" departSpeed="speedLimit" route="route_4" />
<vehicle id="vehicle_1215" depart="282" departLane="best" departSpeed="speedLimit" route="route_7" />
<vehicle id="vehicle_110" depart="287" departLane="best" departSpeed="speedLimit" route="route_1" />
<vehicle id="vehicle_112" depart="290" departLane="best" departSpeed="speedLimit" route="route_2" />
<vehicle id="vehicle_1216" depart="290" departLane="best" departSpeed="speedLimit" route="route_7" />
<vehicle id="vehicle_1217" depart="290" departLane="best" departSpeed="speedLimit" route="route_7" />
<vehicle id="vehicle_113" depart="291" departLane="best" departSpeed="speedLimit" route="route_1" />
<vehicle id="vehicle_1218" depart="292" departLane="best" departSpeed="speedLimit" route="route_7" />
<vehicle id="vehicle_1219" depart="292" departLane="best" departSpeed="speedLimit" route="route_7" />
<vehicle id="vehicle_1220" depart="294" departLane="best" departSpeed="speedLimit" route="route_8" />
<vehicle id="vehicle_1221" depart="294" departLane="best" departSpeed="speedLimit" route="route_7" />
<vehicle id="vehicle_1222" depart="294" departLane="best" departSpeed="speedLimit" route="route_7" />
<vehicle id="vehicle_1223" depart="296" departLane="best" departSpeed="speedLimit" route="route_7" />
<vehicle id="vehicle_114" depart="299" departLane="best" departSpeed="speedLimit" route="route_1" />
<vehicle id="vehicle_115" depart="302" departLane="best" departSpeed="speedLimit" route="route_1" />
<vehicle id="vehicle_1224" depart="302" departLane="best" departSpeed="speedLimit" route="route_7" />
<vehicle id="vehicle_1225" depart="302" departLane="best" departSpeed="speedLimit" route="route_7" />
<vehicle id="vehicle_1226" depart="302" departLane="best" departSpeed="speedLimit" route="route_7" />
<vehicle id="vehicle_116" depart="304" departLane="best" departSpeed="speedLimit" route="route_1" />
<vehicle id="vehicle_1227" depart="306" departLane="best" departSpeed="speedLimit" route="route_7" />
<vehicle id="vehicle_1228" depart="308" departLane="best" departSpeed="speedLimit" route="route_7" />
<vehicle id="vehicle_117" depart="309" departLane="best" departSpeed="speedLimit" route="route_5" />
<vehicle id="vehicle_1229" depart="310" departLane="best" departSpeed="speedLimit" route="route_7" />
<vehicle id="vehicle_118" depart="311" departLane="best" departSpeed="speedLimit" route="route_5" />
<vehicle id="vehicle_1230" depart="314" departLane="best" departSpeed="speedLimit" route="route_7" />
<vehicle id="vehicle_119" depart="322" departLane="best" departSpeed="speedLimit" route="route_3" />
<vehicle id="vehicle_1231" depart="322" departLane="best" departSpeed="speedLimit" route="route_7" />
<vehicle id="vehicle_120" depart="324" departLane="best" departSpeed="speedLimit" route="route_1" />
<vehicle id="vehicle_1232" depart="326" departLane="best" departSpeed="speedLimit" route="route_7" />
<vehicle id="vehicle_1233" depart="328" departLane="best" departSpeed="speedLimit" route="route_7" />
<vehicle id="vehicle_1234" depart="330" departLane="best" departSpeed="speedLimit" route="route_7" />
<vehicle id="vehicle_126" depart="331" departLane="best" departSpeed="speedLimit" route="route_5" />
<vehicle id="vehicle_1235" depart="332" departLane="best" departSpeed="speedLimit" route="route_7" />
<vehicle id="vehicle_1236" depart="334" departLane="best" departSpeed="speedLimit" route="route_7" />
<vehicle id="vehicle_1237" depart="336" departLane="best" departSpeed="speedLimit" route="route_7" />
<vehicle id="vehicle_121" depart="344" departLane="best" departSpeed="speedLimit" route="route_9" />
<vehicle id="vehicle_122" depart="347" departLane="best" departSpeed="speedLimit" route="route_1" />
<vehicle id="vehicle_127" depart="350" departLane="best" departSpeed="speedLimit" route="route_3" />
<vehicle id="vehicle_123" depart="351" departLane="best" departSpeed="speedLimit" route="route_1" />
<vehicle id="vehicle_124" depart="353" departLane="best" departSpeed="speedLimit" route="route_1" />
<vehicle id="vehicle_128" depart="355" departLane="best" departSpeed="speedLimit" route="route_3" />
<vehicle id="vehicle_125" depart="360" departLane="best" departSpeed="speedLimit" route="route_9" />
<vehicle id="vehicle_1238" depart="368" departLane="best" departSpeed="speedLimit" route="route_7" />
<vehicle id="vehicle_1239" depart="370" departLane="best" departSpeed="speedLimit" route="route_6" />
<vehicle id="vehicle_131" depart="372" departLane="best" departSpeed="speedLimit" route="route_4" />
<vehicle id="vehicle_1240" depart="376" departLane="best" departSpeed="speedLimit" route="route_7" />
<vehicle id="vehicle_129" depart="378" departLane="best" departSpeed="speedLimit" route="route_1" />
<vehicle id="vehicle_130" depart="378" departLane="best" departSpeed="speedLimit" route="route_1" />
<vehicle id="vehicle_1241" depart="378" departLane="best" departSpeed="speedLimit" route="route_7" />
<vehicle id="vehicle_133" depart="382" departLane="best" departSpeed="speedLimit" route="route_1" />
<vehicle id="vehicle_134" depart="382" departLane="best" departSpeed="speedLimit" route="route_1" />
<vehicle id="vehicle_135" depart="383" departLane="best" departSpeed="speedLimit" route="route_1" />
<vehicle id="vehicle_136" depart="384" departLane="best" departSpeed="speedLimit" route="route_1" />
<vehicle id="vehicle_137" depart="386" departLane="best" departSpeed="speedLimit" route="route_1" />
<vehicle id="vehicle_138" depart="387" departLane="best" departSpeed="speedLimit" route="route_1" />
<vehicle id="vehicle_139" depart="390" departLane="best" departSpeed="speedLimit" route="route_2" />
<vehicle id="vehicle_140" depart="391" departLane="best" departSpeed="speedLimit" route="route_1" />
<vehicle id="vehicle_141" depart="392" departLane="best" departSpeed="speedLimit" route="route_1" />
<vehicle id="vehicle_132" depart="393" departLane="best" departSpeed="speedLimit" route="route_3" />
<vehicle id="vehicle_142" depart="395" departLane="best" departSpeed="speedLimit" route="route_1" />
<vehicle id="vehicle_1242" depart="396" departLane="best" departSpeed="speedLimit" route="route_7" />
<vehicle id="vehicle_1243" depart="398" departLane="best" departSpeed="speedLimit" route="route_7" />
<vehicle id="vehicle_1244" depart="400" departLane="best" departSpeed="speedLimit" route="route_7" />
<vehicle id="vehicle_1245" depart="400" departLane="best" departSpeed="speedLimit" route="route_7" />
<vehicle id="vehicle_143" depart="402" departLane="best" departSpeed="speedLimit" route="route_1" />
<vehicle id="vehicle_1246" depart="402" departLane="best" departSpeed="speedLimit" route="route_7" />
<vehicle id="vehicle_1247" depart="404" departLane="best" departSpeed="speedLimit" route="route_7" />
<vehicle id="vehicle_1248" depart="406" departLane="best" departSpeed="speedLimit" route="route_7" />
<vehicle id="vehicle_1249" depart="406" departLane="best" departSpeed="speedLimit" route="route_7" />
<vehicle id="vehicle_1250" depart="406" departLane="best" departSpeed="speedLimit" route="route_7" />
<vehicle id="vehicle_144" depart="407" departLane="best" departSpeed="speedLimit" route="route_2" />
<vehicle id="vehicle_1251" depart="408" departLane="best" departSpeed="speedLimit" route="route_7" />
<vehicle id="vehicle_145" depart="409" departLane="best" departSpeed="speedLimit" route="route_3" />
<vehicle id="vehicle_146" depart="410" departLane="best" departSpeed="speedLimit" route="route_5" />
<vehicle id="vehicle_1252" depart="410" departLane="best" departSpeed="speedLimit" route="route_7" />
<vehicle id="vehicle_1253" depart="410" departLane="best" departSpeed="speedLimit" route="route_7" />
<vehicle id="vehicle_147" depart="411" departLane="best" departSpeed="speedLimit" route="route_3" />
<vehicle id="vehicle_148" depart="412" departLane="best" departSpeed="speedLimit" route="route_3" />
<vehicle id="vehicle_151" depart="413" departLane="best" departSpeed="speedLimit" route="route_2" />
<vehicle id="vehicle_1254" depart="414" departLane="best" departSpeed="speedLimit" route="route_7" />
<vehicle id="vehicle_1255" depart="414" departLane="best" departSpeed="speedLimit" route="route_7" />
<vehicle id="vehicle_149" depart="415" departLane="best" departSpeed="speedLimit" route="route_5" />
<vehicle id="vehicle_1256" depart="416" departLane="best" departSpeed="speedLimit" route="route_7" />
<vehicle id="vehicle_1257" depart="416" departLane="best" departSpeed="speedLimit" route="route_8" />
<vehicle id="vehicle_1258" depart="418" departLane="best" departSpeed="speedLimit" route="route_7" />
<vehicle id="vehicle_1259" depart="418" departLane="best" departSpeed="speedLimit" route="route_7" />
<vehicle id="vehicle_1260" depart="422" departLane="best" departSpeed="speedLimit" route="route_7" />
<vehicle id="vehicle_150" depart="423" departLane="best" departSpeed="speedLimit" route="route_3" />
<vehicle id="vehicle_152" depart="424" departLane="best" departSpeed="speedLimit" route="route_1" />
<vehicle id="vehicle_1261" depart="424" departLane="best" departSpeed="speedLimit" route="route_8" />
<vehicle id="vehicle_153" depart="425" departLane="best" departSpeed="speedLimit" route="route_1" />
<vehicle id="vehicle_157" depart="429" departLane="best" departSpeed="speedLimit" route="route_5" />
<vehicle id="vehicle_1262" depart="430" departLane="best" departSpeed="speedLimit" route="route_7" />
<vehicle id="vehicle_1263" depart="430" departLane="best" departSpeed="speedLimit" route="route_7" />
<vehicle id="vehicle_158" depart="432" departLane="best" departSpeed="speedLimit" route="route_3" />
<vehicle id="vehicle_1264" depart="432" departLane="best" departSpeed="speedLimit" route="route_7" />
<vehicle id="vehicle_1265" depart="432" departLane="best" departSpeed="speedLimit" route="route_7" />
<vehicle id="vehicle_159" depart="433" departLane="best" departSpeed="speedLimit" route="route_5" />
<vehicle id="vehicle_154" depart="434" departLane="best" departSpeed="speedLimit" route="route_1" />
<vehicle id="vehicle_160" depart="434" departLane="best" departSpeed="speedLimit" route="route_3" />
<vehicle id="vehicle_1266" depart="434" departLane="best" departSpeed="speedLimit" route="route_7" />
<vehicle id="vehicle_155" depart="435" departLane="best" departSpeed="speedLimit" route="route_1" />
<vehicle id="vehicle_156" depart="435" departLane="best" departSpeed="speedLimit" route="route_1" />
<vehicle id="vehicle_1267" depart="438" departLane="best" departSpeed="speedLimit" route="route_6" />
<vehicle id="vehicle_163" depart="440" departLane="best" departSpeed="speedLimit" route="route_4" />
<vehicle id="vehicle_1268" depart="440" departLane="best" departSpeed="speedLimit" route="route_7" />
<vehicle id="vehicle_1269" depart="440" departLane="best" departSpeed="speedLimit" route="route_7" />
<vehicle id="vehicle_161" depart="443" departLane="best" departSpeed="speedLimit" route="route_2" />
<vehicle id="vehicle_1270" depart="444" departLane="best" departSpeed="speedLimit" route="route_6" />
<vehicle id="vehicle_162" depart="445" departLane="best" departSpeed="speedLimit" route="route_9" />
<vehicle id="vehicle_165" depart="447" departLane="best" departSpeed="speedLimit" route="route_1" />
<vehicle id="vehicle_164" depart="449" departLane="best" departSpeed="speedLimit" route="route_3" />
<vehicle id="vehicle_166" depart="456" departLane="best" departSpeed="speedLimit" route="route_1" />
<vehicle id="vehicle_1271" depart="456" departLane="best" departSpeed="speedLimit" route="route_7" />
<vehicle id="vehicle_168" depart="465" departLane="best" departSpeed="speedLimit" route="route_1" />
<vehicle id="vehicle_169" depart="467" departLane="best" departSpeed="speedLimit" route="route_1" />
<vehicle id="vehicle_170" depart="468" departLane="best" departSpeed="speedLimit" route="route_1" />
<vehicle id="vehicle_167" depart="469" departLane="best" departSpeed="speedLimit" route="route_3" />
<vehicle id="vehicle_171" depart="475" departLane="best" departSpeed="speedLimit" route="route_1" />
<vehicle id="vehicle_172" depart="480" departLane="best" departSpeed="speedLimit" route="route_9" />
<vehicle id="vehicle_173" depart="482" departLane="best" departSpeed="speedLimit" route="route_9" />
<vehicle id="vehicle_176" depart="487" departLane="best" departSpeed="speedLimit" route="route_11" />
<vehicle id="vehicle_177" depart="488" departLane="best" departSpeed="speedLimit" route="route_9" />
<vehicle id="vehicle_174" depart="490" departLane="best" departSpeed="speedLimit" route="route_1" />