<?xml version="1.0" encoding="UTF-8"?>

<routes>
    <vType id="typeNS" length="7.00" minGap="3.00" maxSpeed="25.00" guiShape="bus" accel="0.8" decel="4.5" sigma="0.5"/>
    <vType id="typeWE" length="5.00" minGap="2.50" maxSpeed="16.67" guiShape="passenger" accel="0.8" decel="4.5" sigma="0.5"/>
    <route edges="-gneE7 gneE5" color="yellow" id="route_0"/>
    <route edges="-gneE7 gneE6" color="yellow" id="route_1"/>
    <route edges="-gneE4 gneE5" color="yellow" id="route_10"/>
    <route edges="-gneE4 gneE6" color="yellow" id="route_11"/>
    <route edges="-gneE7 gneE4" color="yellow" id="route_2"/>
    <route edges="-gneE5 gneE6" color="yellow" id="route_3"/>
    <route edges="-gneE5 gneE4" color="yellow" id="route_4"/>
    <route edges="-gneE5 gneE7" color="yellow" id="route_5"/>
    <route edges="-gneE6 gneE4" color="yellow" id="route_6"/>
    <route edges="-gneE6 gneE7" color="yellow" id="route_7"/>
    <route edges="-gneE6 gneE5" color="yellow" id="route_8"/>
    <route edges="-gneE4 gneE7" color="yellow" id="route_9"/>
    <vehicle id="vehicle_0" depart="4" departLane="best" departSpeed="speedLimit" route="route_4" />
<vehicle id="vehicle_1" depart="4" departLane="best" departSpeed="speedLimit" route="route_3" />
<vehicle id="vehicle_2" depart="7" departLane="best" departSpeed="speedLimit" route="route_0" />
<vehicle id="vehicle_3" depart="8" departLane="best" departSpeed="speedLimit" route="route_1" />
<vehicle id="vehicle_4" depart="8" departLane="best" departSpeed="speedLimit" route="route_1" />
<vehicle id="vehicle_6" depart="9" departLane="best" departSpeed="speedLimit" route="route_1" />
<vehicle id="vehicle_5" depart="12" departLane="best" departSpeed="speedLimit" route="route_3" />
<vehicle id="vehicle_7" depart="14" departLane="best" departSpeed="speedLimit" route="route_1" />
<vehicle id="vehicle_1089" depart="14" departLane="best" departSpeed="speedLimit" route="route_7" />"
<vehicle id="vehicle_8" depart="16" departLane="best" departSpeed="speedLimit" route="route_1" />
<vehicle id="vehicle_1090" depart="16" departLane="best" departSpeed="speedLimit" route="route_7" />"
<vehicle id="vehicle_9" depart="17" departLane="best" departSpeed="speedLimit" route="route_1" />
<vehicle id="vehicle_1091" depart="20" departLane="best" departSpeed="speedLimit" route="route_7" />"
<vehicle id="vehicle_10" depart="27" departLane="best" departSpeed="speedLimit" route="route_3" />
<vehicle id="vehicle_11" depart="28" departLane="best" departSpeed="speedLimit" route="route_3" />
<vehicle id="vehicle_12" depart="28" departLane="best" departSpeed="speedLimit" route="route_1" />
<vehicle id="vehicle_13" depart="28" departLane="best" departSpeed="speedLimit" route="route_1" />
<vehicle id="vehicle_14" depart="30" departLane="best" departSpeed="speedLimit" route="route_1" />
<vehicle id="vehicle_1092" depart="36" departLane="best" departSpeed="speedLimit" route="route_7" />"
<vehicle id="vehicle_16" depart="38" departLane="best" departSpeed="speedLimit" route="route_1" />
<vehicle id="vehicle_17" depart="39" departLane="best" departSpeed="speedLimit" route="route_1" />
<vehicle id="vehicle_1093" depart="40" departLane="best" departSpeed="speedLimit" route="route_7" />"
<vehicle id="vehicle_1094" depart="42" departLane="best" departSpeed="speedLimit" route="route_7" />"
<vehicle id="vehicle_15" depart="43" departLane="best" departSpeed="speedLimit" route="route_3" />
<vehicle id="vehicle_1095" depart="44" departLane="best" departSpeed="speedLimit" route="route_7" />"
<vehicle id="vehicle_18" depart="45" departLane="best" departSpeed="speedLimit" route="route_1" />
<vehicle id="vehicle_19" depart="48" departLane="best" departSpeed="speedLimit" route="route_1" />
<vehicle id="vehicle_20" depart="49" departLane="best" departSpeed="speedLimit" route="route_1" />
<vehicle id="vehicle_1096" depart="50" departLane="best" departSpeed="speedLimit" route="route_7" />"
<vehicle id="vehicle_1097" depart="50" departLane="best" departSpeed="speedLimit" route="route_7" />"
<vehicle id="vehicle_1098" depart="50" departLane="best" departSpeed="speedLimit" route="route_7" />"
<vehicle id="vehicle_1099" depart="52" departLane="best" departSpeed="speedLimit" route="route_7" />"
<vehicle id="vehicle_21" depart="54" departLane="best" departSpeed="speedLimit" route="route_11" />
<vehicle id="vehicle_1100" depart="54" departLane="best" departSpeed="speedLimit" route="route_7" />"
<vehicle id="vehicle_1101" depart="54" departLane="best" departSpeed="speedLimit" route="route_7" />"
<vehicle id="vehicle_1102" depart="58" departLane="best" departSpeed="speedLimit" route="route_8" />"
<vehicle id="vehicle_22" depart="60" departLane="best" departSpeed="speedLimit" route="route_3" />
<vehicle id="vehicle_1103" depart="62" departLane="best" departSpeed="speedLimit" route="route_7" />"
<vehicle id="vehicle_1104" depart="62" departLane="best" departSpeed="speedLimit" route="route_7" />"
<vehicle id="vehicle_1105" depart="64" departLane="best" departSpeed="speedLimit" route="route_7" />"
<vehicle id="vehicle_1106" depart="64" departLane="best" departSpeed="speedLimit" route="route_7" />"
<vehicle id="vehicle_1107" depart="64" departLane="best" departSpeed="speedLimit" route="route_7" />"
<vehicle id="vehicle_24" depart="67" departLane="best" departSpeed="speedLimit" route="route_3" />
<vehicle id="vehicle_1108" depart="68" departLane="best" departSpeed="speedLimit" route="route_7" />"
<vehicle id="vehicle_23" depart="69" departLane="best" departSpeed="speedLimit" route="route_2" />
<vehicle id="vehicle_45" depart="72" departLane="best" departSpeed="speedLimit" route="route_9" />
<vehicle id="vehicle_41" depart="74" departLane="best" departSpeed="speedLimit" route="route_5" />
<vehicle id="vehicle_42" depart="78" departLane="best" departSpeed="speedLimit" route="route_3" />
<vehicle id="vehicle_1109" depart="78" departLane="best" departSpeed="speedLimit" route="route_8" />"
<vehicle id="vehicle_43" depart="79" departLane="best" departSpeed="speedLimit" route="route_3" />
<vehicle id="vehicle_25" depart="81" departLane="best" departSpeed="speedLimit" route="route_1" />
<vehicle id="vehicle_26" depart="81" departLane="best" departSpeed="speedLimit" route="route_1" />
<vehicle id="vehicle_27" depart="81" departLane="best" departSpeed="speedLimit" route="route_1" />
<vehicle id="vehicle_28" depart="82" departLane="best" departSpeed="speedLimit" route="route_1" />
<vehicle id="vehicle_1110" depart="82" departLane="best" departSpeed="speedLimit" route="route_7" />"
<vehicle id="vehicle_1111" depart="82" departLane="best" departSpeed="speedLimit" route="route_7" />"
<vehicle id="vehicle_1112" depart="84" departLane="best" departSpeed="speedLimit" route="route_7" />"
<vehicle id="vehicle_29" depart="85" departLane="best" departSpeed="speedLimit" route="route_1" />
<vehicle id="vehicle_30" depart="85" departLane="best" departSpeed="speedLimit" route="route_1" />
<vehicle id="vehicle_31" depart="88" departLane="best" departSpeed="speedLimit" route="route_1" />
<vehicle id="vehicle_32" depart="89" departLane="best" departSpeed="speedLimit" route="route_1" />
<vehicle id="vehicle_33" depart="89" departLane="best" departSpeed="speedLimit" route="route_1" />
<vehicle id="vehicle_34" depart="89" departLane="best" departSpeed="speedLimit" route="route_1" />
<vehicle id="vehicle_35" depart="90" departLane="best" departSpeed="speedLimit" route="route_0" />
<vehicle id="vehicle_1113" depart="90" departLane="best" departSpeed="speedLimit" route="route_7" />"
<vehicle id="vehicle_36" depart="92" departLane="best" departSpeed="speedLimit" route="route_1" />
<vehicle id="vehicle_37" depart="92" departLane="best" departSpeed="speedLimit" route="route_1" />
<vehicle id="vehicle_38" depart="92" departLane="best" departSpeed="speedLimit" route="route_1" />
<vehicle id="vehicle_46" depart="93" departLane="best" departSpeed="speedLimit" route="route_9" />
<vehicle id="vehicle_47" depart="94" departLane="best" departSpeed="speedLimit" route="route_3" />
<vehicle id="vehicle_48" depart="94" departLane="best" departSpeed="speedLimit" route="route_3" />
<vehicle id="vehicle_49" depart="96" departLane="best" departSpeed="speedLimit" route="route_5" />
<vehicle id="vehicle_50" depart="96" departLane="best" departSpeed="speedLimit" route="route_4" />
<vehicle id="vehicle_1114" depart="96" departLane="best" departSpeed="speedLimit" route="route_7" />"
<vehicle id="vehicle_39" depart="97" departLane="best" departSpeed="speedLimit" route="route_1" />
<vehicle id="vehicle_40" depart="97" departLane="best" departSpeed="speedLimit" route="route_1" />
<vehicle id="vehicle_44" depart="103" departLane="best" departSpeed="speedLimit" route="route_0" />
<vehicle id="vehicle_58" depart="104" departLane="best" departSpeed="speedLimit" route="route_9" />
<vehicle id="vehicle_59" depart="106" departLane="best" departSpeed="speedLimit" route="route_9" />
<vehicle id="vehicle_51" depart="112" departLane="best" departSpeed="speedLimit" route="route_4" />
<vehicle id="vehicle_52" depart="113" departLane="best" departSpeed="speedLimit" route="route_5" />
<vehicle id="vehicle_61" depart="113" departLane="best" departSpeed="speedLimit" route="route_1" />
<vehicle id="vehicle_62" depart="113" departLane="best" departSpeed="speedLimit" route="route_1" />
<vehicle id="vehicle_63" depart="114" departLane="best" departSpeed="speedLimit" route="route_1" />
<vehicle id="vehicle_64" depart="114" departLane="best" departSpeed="speedLimit" route="route_1" />
<vehicle id="vehicle_65" depart="115" departLane="best" departSpeed="speedLimit" route="route_1" />
<vehicle id="vehicle_53" depart="122" departLane="best" departSpeed="speedLimit" route="route_5" />
<vehicle id="vehicle_54" depart="123" departLane="best" departSpeed="speedLimit" route="route_5" />
<vehicle id="vehicle_66" depart="126" departLane="best" departSpeed="speedLimit" route="route_1" />
<vehicle id="vehicle_67" depart="127" departLane="best" departSpeed="speedLimit" route="route_1" />
<vehicle id="vehicle_55" depart="129" departLane="best" departSpeed="speedLimit" route="route_4" />
<vehicle id="vehicle_56" depart="129" departLane="best" departSpeed="speedLimit" route="route_3" />
<vehicle id="vehicle_57" depart="131" departLane="best" departSpeed="speedLimit" route="route_3" />
<vehicle id="vehicle_60" depart="139" departLane="best" departSpeed="speedLimit" route="route_9" />
<vehicle id="vehicle_68" depart="149" departLane="best" departSpeed="speedLimit" route="route_1" />
<vehicle id="vehicle_69" depart="149" departLane="best" departSpeed="speedLimit" route="route_1" />
<vehicle id="vehicle_70" depart="150" departLane="best" departSpeed="speedLimit" route="route_1" />
<vehicle id="vehicle_1115" depart="150" departLane="best" departSpeed="speedLimit" route="route_7" />"
<vehicle id="vehicle_71" depart="151" departLane="best" departSpeed="speedLimit" route="route_1" />
<vehicle id="vehicle_74" depart="152" departLane="best" departSpeed="speedLimit" route="route_3" />
<vehicle id="vehicle_72" depart="153" departLane="best" departSpeed="speedLimit" route="route_1" />
<vehicle id="vehicle_73" depart="153" departLane="best" departSpeed="speedLimit" route="route_1" />
<vehicle id="vehicle_75" depart="153" departLane="best" departSpeed="speedLimit" route="route_3" />
<vehicle id="vehicle_77" depart="154" departLane="best" departSpeed="speedLimit" route="route_1" />
<vehicle id="vehicle_1116" depart="154" departLane="best" departSpeed="speedLimit" route="route_7" />"
<vehicle id="vehicle_1117" depart="154" departLane="best" departSpeed="speedLimit" route="route_7" />"
<vehicle id="vehicle_1118" depart="156" departLane="best" departSpeed="speedLimit" route="route_7" />"
<vehicle id="vehicle_1119" depart="156" departLane="best" departSpeed="speedLimit" route="route_7" />"
<vehicle id="vehicle_78" depart="158" departLane="best" departSpeed="speedLimit" route="route_1" />
<vehicle id="vehicle_1120" depart="158" departLane="best" departSpeed="speedLimit" route="route_7" />"
<vehicle id="vehicle_1121" depart="158" departLane="best" departSpeed="speedLimit" route="route_7" />"
<vehicle id="vehicle_79" depart="160" departLane="best" departSpeed="speedLimit" route="route_1" />
<vehicle id="vehicle_1122" depart="160" departLane="best" departSpeed="speedLimit" route="route_7" />"
<vehicle id="vehicle_76" depart="161" departLane="best" departSpeed="speedLimit" route="route_5" />
<vehicle id="vehicle_1123" depart="162" departLane="best" departSpeed="speedLimit" route="route_7" />"
<vehicle id="vehicle_1124" depart="164" departLane="best" departSpeed="speedLimit" route="route_7" />"
<vehicle id="vehicle_81" depart="166" departLane="best" departSpeed="speedLimit" route="route_5" />
<vehicle id="vehicle_80" depart="167" departLane="best" departSpeed="speedLimit" route="route_1" />
<vehicle id="vehicle_1125" depart="168" departLane="best" departSpeed="speedLimit" route="route_7" />"
<vehicle id="vehicle_1126" depart="172" departLane="best" departSpeed="speedLimit" route="route_8" />"
<vehicle id="vehicle_82" depart="174" departLane="best" departSpeed="speedLimit" route="route_5" />
<vehicle id="vehicle_90" depart="174" departLane="best" departSpeed="speedLimit" route="route_11" />
<vehicle id="vehicle_1127" depart="174" departLane="best" departSpeed="speedLimit" route="route_7" />"
<vehicle id="vehicle_1128" depart="174" departLane="best" departSpeed="speedLimit" route="route_7" />"
<vehicle id="vehicle_1129" depart="174" departLane="best" departSpeed="speedLimit" route="route_7" />"
<vehicle id="vehicle_1130" depart="176" departLane="best" departSpeed="speedLimit" route="route_7" />"
<vehicle id="vehicle_1131" depart="176" departLane="best" departSpeed="speedLimit" route="route_7" />"
<vehicle id="vehicle_83" depart="177" departLane="best" departSpeed="speedLimit" route="route_5" />
<vehicle id="vehicle_1132" depart="178" departLane="best" departSpeed="speedLimit" route="route_7" />"
<vehicle id="vehicle_84" depart="179" departLane="best" departSpeed="speedLimit" route="route_3" />
<vehicle id="vehicle_1133" depart="180" departLane="best" departSpeed="speedLimit" route="route_7" />"
<vehicle id="vehicle_1134" depart="180" departLane="best" departSpeed="speedLimit" route="route_7" />"
<vehicle id="vehicle_85" depart="182" departLane="best" departSpeed="speedLimit" route="route_1" />
<vehicle id="vehicle_86" depart="182" departLane="best" departSpeed="speedLimit" route="route_1" />
<vehicle id="vehicle_87" depart="182" departLane="best" departSpeed="speedLimit" route="route_5" />
<vehicle id="vehicle_88" depart="182" departLane="best" departSpeed="speedLimit" route="route_3" />
<vehicle id="vehicle_1135" depart="182" departLane="best" departSpeed="speedLimit" route="route_7" />"
<vehicle id="vehicle_1136" depart="182" departLane="best" departSpeed="speedLimit" route="route_7" />"
<vehicle id="vehicle_89" depart="187" departLane="best" departSpeed="speedLimit" route="route_2" />
<vehicle id="vehicle_92" depart="187" departLane="best" departSpeed="speedLimit" route="route_5" />
<vehicle id="vehicle_1137" depart="188" departLane="best" departSpeed="speedLimit" route="route_7" />"
<vehicle id="vehicle_1138" depart="188" departLane="best" departSpeed="speedLimit" route="route_7" />"
<vehicle id="vehicle_91" depart="191" departLane="best" departSpeed="speedLimit" route="route_11" />
<vehicle id="vehicle_1139" depart="194" departLane="best" departSpeed="speedLimit" route="route_7" />"
<vehicle id="vehicle_1140" depart="194" departLane="best" departSpeed="speedLimit" route="route_7" />"
<vehicle id="vehicle_1141" depart="196" departLane="best" departSpeed="speedLimit" route="route_7" />"
<vehicle id="vehicle_93" depart="197" departLane="best" departSpeed="speedLimit" route="route_3" />
<vehicle id="vehicle_94" depart="203" departLane="best" departSpeed="speedLimit" route="route_11" />
<vehicle id="vehicle_1142" depart="206" departLane="best" departSpeed="speedLimit" route="route_7" />"
<vehicle id="vehicle_99" depart="207" departLane="best" departSpeed="speedLimit" route="route_1" />
<vehicle id="vehicle_95" depart="210" departLane="best" departSpeed="speedLimit" route="route_4" />
<vehicle id="vehicle_100" depart="211" departLane="best" departSpeed="speedLimit" route="route_1" />
<vehicle id="vehicle_101" depart="211" departLane="best" departSpeed="speedLimit" route="route_1" />
<vehicle id="vehicle_102" depart="214" departLane="best" departSpeed="speedLimit" route="route_1" />
<vehicle id="vehicle_96" depart="215" departLane="best" departSpeed="speedLimit" route="route_9" />
<vehicle id="vehicle_97" depart="217" departLane="best" departSpeed="speedLimit" route="route_9" />
<vehicle id="vehicle_103" depart="218" departLane="best" departSpeed="speedLimit" route="route_1" />
<vehicle id="vehicle_104" depart="219" departLane="best" departSpeed="speedLimit" route="route_1" />
<vehicle id="vehicle_98" depart="220" departLane="best" departSpeed="speedLimit" route="route_5" />
<vehicle id="vehicle_1143" depart="220" departLane="best" departSpeed="speedLimit" route="route_8" />"
<vehicle id="vehicle_105" depart="221" departLane="best" departSpeed="speedLimit" route="route_0" />
<vehicle id="vehicle_107" depart="226" departLane="best" departSpeed="speedLimit" route="route_3" />
<vehicle id="vehicle_106" depart="227" departLane="best" departSpeed="speedLimit" route="route_1" />
<vehicle id="vehicle_108" depart="230" departLane="best" departSpeed="speedLimit" route="route_11" />
<vehicle id="vehicle_109" depart="235" departLane="best" departSpeed="speedLimit" route="route_1" />
<vehicle id="vehicle_110" depart="235" departLane="best" departSpeed="speedLimit" route="route_1" />
<vehicle id="vehicle_111" depart="237" departLane="best" departSpeed="speedLimit" route="route_1" />
<vehicle id="vehicle_112" depart="239" departLane="best" departSpeed="speedLimit" route="route_1" />
<vehicle id="vehicle_113" depart="240" departLane="best" departSpeed="speedLimit" route="route_1" />
<vehicle id="vehicle_1144" depart="240" departLane="best" departSpeed="speedLimit" route="route_8" />"
<vehicle id="vehicle_114" depart="241" departLane="best" departSpeed="speedLimit" route="route_0" />
<vehicle id="vehicle_115" depart="242" departLane="best" departSpeed="speedLimit" route="route_1" />
<vehicle id="vehicle_122" depart="243" departLane="best" departSpeed="speedLimit" route="route_3" />
<vehicle id="vehicle_117" depart="244" departLane="best" departSpeed="speedLimit" route="route_1" />
<vehicle id="vehicle_116" depart="245" departLane="best" departSpeed="speedLimit" route="route_9" />
<vehicle id="vehicle_118" depart="248" departLane="best" departSpeed="speedLimit" route="route_1" />
<vehicle id="vehicle_119" depart="250" departLane="best" departSpeed="speedLimit" route="route_1" />
<vehicle id="vehicle_120" depart="250" departLane="best" departSpeed="speedLimit" route="route_1" />
<vehicle id="vehicle_121" depart="252" departLane="best" departSpeed="speedLimit" route="route_9" />
<vehicle id="vehicle_123" depart="255" departLane="best" departSpeed="speedLimit" route="route_3" />
<vehicle id="vehicle_1145" depart="260" departLane="best" departSpeed="speedLimit" route="route_7" />"
<vehicle id="vehicle_1146" depart="260" departLane="best" departSpeed="speedLimit" route="route_7" />"
<vehicle id="vehicle_124" depart="262" departLane="best" departSpeed="speedLimit" route="route_1" />
<vehicle id="vehicle_125" depart="263" departLane="best" departSpeed="speedLimit" route="route_1" />
<vehicle id="vehicle_1147" depart="264" departLane="best" departSpeed="speedLimit" route="route_7" />"
<vehicle id="vehicle_1148" depart="266" departLane="best" departSpeed="speedLimit" route="route_7" />"
<vehicle id="vehicle_1149" depart="266" departLane="best" departSpeed="speedLimit" route="route_7" />"
<vehicle id="vehicle_1150" depart="268" departLane="best" departSpeed="speedLimit" route="route_7" />"
<vehicle id="vehicle_1151" depart="270" departLane="best" departSpeed="speedLimit" route="route_7" />"
<vehicle id="vehicle_1152" depart="272" departLane="best" departSpeed="speedLimit" route="route_7" />"
<vehicle id="vehicle_1153" depart="276" departLane="best" departSpeed="speedLimit" route="route_7" />"
<vehicle id="vehicle_1154" depart="278" departLane="best" departSpeed="speedLimit" route="route_7" />"
<vehicle id="vehicle_1155" depart="278" departLane="best" departSpeed="speedLimit" route="route_7" />"
<vehicle id="vehicle_1156" depart="280" departLane="best" departSpeed="speedLimit" route="route_7" />"
<vehicle id="vehicle_1157" depart="280" departLane="best" departSpeed="speedLimit" route="route_7" />"
<vehicle id="vehicle_1158" depart="282" departLane="best" departSpeed="speedLimit" route="route_7" />"
<vehicle id="vehicle_126" depart="284" departLane="best" departSpeed="speedLimit" route="route_10" />
<vehicle id="vehicle_127" depart="284" departLane="best" departSpeed="speedLimit" route="route_3" />
<vehicle id="vehicle_1159" depart="284" departLane="best" departSpeed="speedLimit" route="route_7" />"
<vehicle id="vehicle_129" depart="286" departLane="best" departSpeed="speedLimit" route="route_1" />
<vehicle id="vehicle_128" depart="290" departLane="best" departSpeed="speedLimit" route="route_3" />
<vehicle id="vehicle_1160" depart="290" departLane="best" departSpeed="speedLimit" route="route_7" />"
<vehicle id="vehicle_1161" depart="294" departLane="best" departSpeed="speedLimit" route="route_7" />"
<vehicle id="vehicle_130" depart="296" departLane="best" departSpeed="speedLimit" route="route_1" />
<vehicle id="vehicle_133" depart="303" departLane="best" departSpeed="speedLimit" route="route_1" />
<vehicle id="vehicle_131" depart="304" departLane="best" departSpeed="speedLimit" route="route_5" />
<vehicle id="vehicle_132" depart="304" departLane="best" departSpeed="speedLimit" route="route_5" />
<vehicle id="vehicle_1162" depart="306" departLane="best" departSpeed="speedLimit" route="route_7" />"
<vehicle id="vehicle_134" depart="311" departLane="best" departSpeed="speedLimit" route="route_5" />
<vehicle id="vehicle_135" depart="313" departLane="best" departSpeed="speedLimit" route="route_1" />
<vehicle id="vehicle_136" depart="314" departLane="best" departSpeed="speedLimit" route="route_1" />
<vehicle id="vehicle_137" depart="316" departLane="best" departSpeed="speedLimit" route="route_1" />
<vehicle id="vehicle_138" depart="317" departLane="best" departSpeed="speedLimit" route="route_1" />
<vehicle id="vehicle_145" depart="318" departLane="best" departSpeed="speedLimit" route="route_10" />
<vehicle id="vehicle_139" depart="319" departLane="best" departSpeed="speedLimit" route="route_1" />
<vehicle id="vehicle_140" depart="320" departLane="best" departSpeed="speedLimit" route="route_1" />
<vehicle id="vehicle_1163" depart="326" departLane="best" departSpeed="speedLimit" route="route_8" />"
<vehicle id="vehicle_1164" depart="328" departLane="best" departSpeed="speedLimit" route="route_7" />"
<vehicle id="vehicle_1165" depart="328" departLane="best" departSpeed="speedLimit" route="route_7" />"
<vehicle id="vehicle_1166" depart="330" departLane="best" departSpeed="speedLimit" route="route_7" />"
<vehicle id="vehicle_141" depart="333" departLane="best" departSpeed="speedLimit" route="route_1" />
<vehicle id="vehicle_1167" depart="336" departLane="best" departSpeed="speedLimit" route="route_7" />"
<vehicle id="vehicle_1168" depart="340" departLane="best" departSpeed="speedLimit" route="route_8" />"
<vehicle id="vehicle_1169" depart="342" departLane="best" departSpeed="speedLimit" route="route_7" />"
<vehicle id="vehicle_1170" depart="342" departLane="best" departSpeed="speedLimit" route="route_7" />"
<vehicle id="vehicle_1171" depart="344" departLane="best" departSpeed="speedLimit" route="route_7" />"
<vehicle id="vehicle_142" depart="346" departLane="best" departSpeed="speedLimit" route="route_1" />
<vehicle id="vehicle_143" depart="349" departLane="best" departSpeed="speedLimit" route="route_1" />
<vehicle id="vehicle_1172" depart="352" departLane="best" departSpeed="speedLimit" route="route_8" />"
<vehicle id="vehicle_144" depart="357" departLane="best" departSpeed="speedLimit" route="route_1" />
<vehicle id="vehicle_146" depart="358" departLane="best" departSpeed="speedLimit" route="route_1" />
<vehicle id="vehicle_1173" depart="360" departLane="best" departSpeed="speedLimit" route="route_7" />"
<vehicle id="vehicle_1174" depart="360" departLane="best" departSpeed="speedLimit" route="route_7" />"
<vehicle id="vehicle_147" depart="361" departLane="best" departSpeed="speedLimit" route="route_2" />
<vehicle id="vehicle_148" depart="367" departLane="best" departSpeed="speedLimit" route="route_1" />
<vehicle id="vehicle_149" depart="368" departLane="best" departSpeed="speedLimit" route="route_1" />
<vehicle id="vehicle_150" depart="368" departLane="best" departSpeed="speedLimit" route="route_2" />
<vehicle id="vehicle_1175" depart="368" departLane="best" departSpeed="speedLimit" route="route_8" />"
<vehicle id="vehicle_151" depart="370" departLane="best" departSpeed="speedLimit" route="route_1" />
<vehicle id="vehicle_152" depart="371" departLane="best" departSpeed="speedLimit" route="route_1" />
<vehicle id="vehicle_153" depart="371" departLane="best" departSpeed="speedLimit" route="route_1" />
<vehicle id="vehicle_154" depart="372" departLane="best" departSpeed="speedLimit" route="route_1" />
<vehicle id="vehicle_1176" depart="372" departLane="best" departSpeed="speedLimit" route="route_7" />"
<vehicle id="vehicle_155" depart="375" departLane="best" departSpeed="speedLimit" route="route_1" />
<vehicle id="vehicle_1177" depart="376" departLane="best" departSpeed="speedLimit" route="route_7" />"
<vehicle id="vehicle_1178" depart="376" departLane="best" departSpeed="speedLimit" route="route_7" />"
<vehicle id="vehicle_156" depart="378" departLane="best" departSpeed="speedLimit" route="route_0" />
<vehicle id="vehicle_1179" depart="380" departLane="best" departSpeed="speedLimit" route="route_7" />"
<vehicle id="vehicle_1180" depart="382" departLane="best" departSpeed="speedLimit" route="route_7" />"
<vehicle id="vehicle_157" depart="383" departLane="best" departSpeed="speedLimit" route="route_1" />
<vehicle id="vehicle_158" depart="384" departLane="best" departSpeed="speedLimit" route="route_1" />
<vehicle id="vehicle_1181" depart="384" departLane="best" departSpeed="speedLimit" route="route_7" />"
<vehicle id="vehicle_1182" depart="386" departLane="best" departSpeed="speedLimit" route="route_7" />"
<vehicle id="vehicle_164" depart="387" departLane="best" departSpeed="speedLimit" route="route_10" />
<vehicle id="vehicle_1183" depart="388" departLane="best" departSpeed="speedLimit" route="route_7" />"
<vehicle id="vehicle_1184" depart="390" departLane="best" departSpeed="speedLimit" route="route_7" />"
<vehicle id="vehicle_1185" depart="390" departLane="best" departSpeed="speedLimit" route="route_7" />"
<vehicle id="vehicle_1186" depart="392" departLane="best" departSpeed="speedLimit" route="route_7" />"
<vehicle id="vehicle_1187" depart="394" departLane="best" departSpeed="speedLimit" route="route_7" />"
<vehicle id="vehicle_1188" depart="394" departLane="best" departSpeed="speedLimit" route="route_7" />"
<vehicle id="vehicle_1189" depart="396" departLane="best" departSpeed="speedLimit" route="route_7" />"
<vehicle id="vehicle_1190" depart="396" departLane="best" departSpeed="speedLimit" route="route_7" />"
<vehicle id="vehicle_1191" depart="398" departLane="best" departSpeed="speedLimit" route="route_7" />"
<vehicle id="vehicle_1192" depart="398" departLane="best" departSpeed="speedLimit" route="route_7" />"
<vehicle id="vehicle_1193" depart="400" departLane="best" departSpeed="speedLimit" route="route_7" />"
<vehicle id="vehicle_1194" depart="400" departLane="best" departSpeed="speedLimit" route="route_7" />"
<vehicle id="vehicle_1195" depart="400" departLane="best" departSpeed="speedLimit" route="route_8" />"
<vehicle id="vehicle_159" depart="405" departLane="best" departSpeed="speedLimit" route="route_1" />
<vehicle id="vehicle_160" depart="412" departLane="best" departSpeed="speedLimit" route="route_1" />
<vehicle id="vehicle_1196" depart="412" departLane="best" departSpeed="speedLimit" route="route_7" />"
<vehicle id="vehicle_1197" depart="412" departLane="best" departSpeed="speedLimit" route="route_7" />"
<vehicle id="vehicle_1198" depart="414" departLane="best" departSpeed="speedLimit" route="route_6" />"
<vehicle id="vehicle_1199" depart="416" departLane="best" departSpeed="speedLimit" route="route_7" />"
<vehicle id="vehicle_161" depart="422" departLane="best" departSpeed="speedLimit" route="route_5" />
<vehicle id="vehicle_162" depart="423" departLane="best" departSpeed="speedLimit" route="route_5" />
<vehicle id="vehicle_167" depart="425" departLane="best" departSpeed="speedLimit" route="route_1" />
<vehicle id="vehicle_168" depart="425" departLane="best" departSpeed="speedLimit" route="route_1" />
<vehicle id="vehicle_169" depart="426" departLane="best" departSpeed="speedLimit" route="route_2" />
<vehicle id="vehicle_1200" depart="426" departLane="best" departSpeed="speedLimit" route="route_7" />"
<vehicle id="vehicle_1201" depart="428" departLane="best" departSpeed="speedLimit" route="route_7" />"
<vehicle id="vehicle_163" depart="430" departLane="best" departSpeed="speedLimit" route="route_4" />
<vehicle id="vehicle_1202" depart="430" departLane="best" departSpeed="speedLimit" route="route_7" />"
<vehicle id="vehicle_1203" depart="432" departLane="best" departSpeed="speedLimit" route="route_7" />"