<?xml version="1.0" encoding="UTF-8"?>

<routes>
    <vType id="typeNS" length="7.00" minGap="3.00" maxSpeed="25.00" guiShape="bus" accel="0.8" decel="4.5" sigma="0.5"/>
    <vType id="typeWE" length="5.00" minGap="2.50" maxSpeed="16.67" guiShape="passenger" accel="0.8" decel="4.5" sigma="0.5"/>
    <route edges="-gneE7 gneE5" color="yellow" id="route_0"/>
    <route edges="-gneE7 gneE6" color="yellow" id="route_1"/>
    <route edges="-gneE4 gneE5" color="yellow" id="route_10"/>
    <route edges="-gneE4 gneE6" color="yellow" id="route_11"/>
    <route edges="-gneE7 gneE4" color="yellow" id="route_2"/>
    <route edges="-gneE5 gneE6" color="yellow" id="route_3"/>
    <route edges="-gneE5 gneE4" color="yellow" id="route_4"/>
    <route edges="-gneE5 gneE7" color="yellow" id="route_5"/>
    <route edges="-gneE6 gneE4" color="yellow" id="route_6"/>
    <route edges="-gneE6 gneE7" color="yellow" id="route_7"/>
    <route edges="-gneE6 gneE5" color="yellow" id="route_8"/>
    <route edges="-gneE4 gneE7" color="yellow" id="route_9"/>
    <vehicle id="vehicle_0" depart="2" departLane="best" departSpeed="speedLimit" route="route_1" />
<vehicle id="vehicle_1" depart="2" departLane="best" departSpeed="speedLimit" route="route_1" />
<vehicle id="vehicle_670" depart="8" departLane="best" departSpeed="speedLimit" route="route_7" />
<vehicle id="vehicle_2" depart="11" departLane="best" departSpeed="speedLimit" route="route_1" />
<vehicle id="vehicle_671" depart="12" departLane="best" departSpeed="speedLimit" route="route_7" />
<vehicle id="vehicle_3" depart="13" departLane="best" departSpeed="speedLimit" route="route_1" />
<vehicle id="vehicle_672" depart="14" departLane="best" departSpeed="speedLimit" route="route_7" />
<vehicle id="vehicle_4" depart="16" departLane="best" departSpeed="speedLimit" route="route_1" />
<vehicle id="vehicle_673" depart="16" departLane="best" departSpeed="speedLimit" route="route_7" />
<vehicle id="vehicle_674" depart="18" departLane="best" departSpeed="speedLimit" route="route_8" />
<vehicle id="vehicle_675" depart="18" departLane="best" departSpeed="speedLimit" route="route_7" />
<vehicle id="vehicle_5" depart="19" departLane="best" departSpeed="speedLimit" route="route_1" />
<vehicle id="vehicle_6" depart="19" departLane="best" departSpeed="speedLimit" route="route_1" />
<vehicle id="vehicle_7" depart="20" departLane="best" departSpeed="speedLimit" route="route_1" />
<vehicle id="vehicle_8" depart="21" departLane="best" departSpeed="speedLimit" route="route_1" />
<vehicle id="vehicle_676" depart="24" departLane="best" departSpeed="speedLimit" route="route_8" />
<vehicle id="vehicle_9" depart="27" departLane="best" departSpeed="speedLimit" route="route_9" />
<vehicle id="vehicle_677" depart="32" departLane="best" departSpeed="speedLimit" route="route_7" />
<vehicle id="vehicle_678" depart="32" departLane="best" departSpeed="speedLimit" route="route_7" />
<vehicle id="vehicle_679" depart="34" departLane="best" departSpeed="speedLimit" route="route_7" />
<vehicle id="vehicle_10" depart="47" departLane="best" departSpeed="speedLimit" route="route_1" />
<vehicle id="vehicle_11" depart="50" departLane="best" departSpeed="speedLimit" route="route_1" />
<vehicle id="vehicle_680" depart="60" departLane="best" departSpeed="speedLimit" route="route_7" />
<vehicle id="vehicle_12" depart="61" departLane="best" departSpeed="speedLimit" route="route_0" />
<vehicle id="vehicle_681" depart="66" departLane="best" departSpeed="speedLimit" route="route_7" />
<vehicle id="vehicle_682" depart="70" departLane="best" departSpeed="speedLimit" route="route_7" />
<vehicle id="vehicle_13" depart="76" departLane="best" departSpeed="speedLimit" route="route_1" />
<vehicle id="vehicle_14" depart="80" departLane="best" departSpeed="speedLimit" route="route_1" />
<vehicle id="vehicle_683" depart="80" departLane="best" departSpeed="speedLimit" route="route_7" />
<vehicle id="vehicle_15" depart="86" departLane="best" departSpeed="speedLimit" route="route_1" />
<vehicle id="vehicle_16" depart="89" departLane="best" departSpeed="speedLimit" route="route_1" />
<vehicle id="vehicle_684" depart="90" departLane="best" departSpeed="speedLimit" route="route_8" />
<vehicle id="vehicle_17" depart="97" departLane="best" departSpeed="speedLimit" route="route_1" />
<vehicle id="vehicle_18" depart="99" departLane="best" departSpeed="speedLimit" route="route_1" />
<vehicle id="vehicle_19" depart="100" departLane="best" departSpeed="speedLimit" route="route_1" />
<vehicle id="vehicle_20" depart="101" departLane="best" departSpeed="speedLimit" route="route_1" />
<vehicle id="vehicle_21" depart="102" departLane="best" departSpeed="speedLimit" route="route_1" />
<vehicle id="vehicle_22" depart="104" departLane="best" departSpeed="speedLimit" route="route_1" />
<vehicle id="vehicle_23" depart="107" departLane="best" departSpeed="speedLimit" route="route_0" />
<vehicle id="vehicle_24" depart="118" departLane="best" departSpeed="speedLimit" route="route_1" />
<vehicle id="vehicle_25" depart="118" departLane="best" departSpeed="speedLimit" route="route_1" />
<vehicle id="vehicle_26" depart="123" departLane="best" departSpeed="speedLimit" route="route_1" />
<vehicle id="vehicle_685" depart="124" departLane="best" departSpeed="speedLimit" route="route_6" />
<vehicle id="vehicle_27" depart="133" departLane="best" departSpeed="speedLimit" route="route_1" />
<vehicle id="vehicle_28" depart="141" departLane="best" departSpeed="speedLimit" route="route_1" />
<vehicle id="vehicle_29" depart="143" departLane="best" departSpeed="speedLimit" route="route_11" />
<vehicle id="vehicle_31" depart="146" departLane="best" departSpeed="speedLimit" route="route_9" />
<vehicle id="vehicle_32" depart="147" departLane="best" departSpeed="speedLimit" route="route_5" />
<vehicle id="vehicle_30" depart="150" departLane="best" departSpeed="speedLimit" route="route_1" />
<vehicle id="vehicle_686" depart="150" departLane="best" departSpeed="speedLimit" route="route_7" />
<vehicle id="vehicle_687" depart="154" departLane="best" departSpeed="speedLimit" route="route_7" />
<vehicle id="vehicle_688" depart="156" departLane="best" departSpeed="speedLimit" route="route_7" />
<vehicle id="vehicle_689" depart="156" departLane="best" departSpeed="speedLimit" route="route_8" />
<vehicle id="vehicle_33" depart="157" departLane="best" departSpeed="speedLimit" route="route_1" />
<vehicle id="vehicle_34" depart="157" departLane="best" departSpeed="speedLimit" route="route_1" />
<vehicle id="vehicle_690" depart="158" departLane="best" departSpeed="speedLimit" route="route_7" />
<vehicle id="vehicle_691" depart="162" departLane="best" departSpeed="speedLimit" route="route_8" />
<vehicle id="vehicle_692" depart="164" departLane="best" departSpeed="speedLimit" route="route_7" />
<vehicle id="vehicle_693" depart="164" departLane="best" departSpeed="speedLimit" route="route_6" />
<vehicle id="vehicle_35" depart="175" departLane="best" departSpeed="speedLimit" route="route_9" />
<vehicle id="vehicle_37" depart="183" departLane="best" departSpeed="speedLimit" route="route_1" />
<vehicle id="vehicle_38" depart="185" departLane="best" departSpeed="speedLimit" route="route_1" />
<vehicle id="vehicle_36" depart="188" departLane="best" departSpeed="speedLimit" route="route_9" />
<vehicle id="vehicle_39" depart="189" departLane="best" departSpeed="speedLimit" route="route_1" />
<vehicle id="vehicle_694" depart="196" departLane="best" departSpeed="speedLimit" route="route_7" />
<vehicle id="vehicle_40" depart="200" departLane="best" departSpeed="speedLimit" route="route_1" />
<vehicle id="vehicle_695" depart="200" departLane="best" departSpeed="speedLimit" route="route_7" />
<vehicle id="vehicle_41" depart="209" departLane="best" departSpeed="speedLimit" route="route_1" />
<vehicle id="vehicle_42" depart="210" departLane="best" departSpeed="speedLimit" route="route_1" />
<vehicle id="vehicle_43" depart="212" departLane="best" departSpeed="speedLimit" route="route_1" />
<vehicle id="vehicle_696" depart="214" departLane="best" departSpeed="speedLimit" route="route_7" />
<vehicle id="vehicle_44" depart="218" departLane="best" departSpeed="speedLimit" route="route_1" />
<vehicle id="vehicle_45" depart="218" departLane="best" departSpeed="speedLimit" route="route_1" />
<vehicle id="vehicle_46" depart="220" departLane="best" departSpeed="speedLimit" route="route_1" />
<vehicle id="vehicle_697" depart="220" departLane="best" departSpeed="speedLimit" route="route_7" />
<vehicle id="vehicle_772" depart="222" departLane="best" departSpeed="speedLimit" route="route_2" />
<vehicle id="vehicle_698" depart="232" departLane="best" departSpeed="speedLimit" route="route_7" />
<vehicle id="vehicle_699" depart="232" departLane="best" departSpeed="speedLimit" route="route_7" />
<vehicle id="vehicle_47" depart="234" departLane="best" departSpeed="speedLimit" route="route_5" />
<vehicle id="vehicle_700" depart="236" departLane="best" departSpeed="speedLimit" route="route_7" />
<vehicle id="vehicle_48" depart="239" departLane="best" departSpeed="speedLimit" route="route_1" />
<vehicle id="vehicle_49" depart="239" departLane="best" departSpeed="speedLimit" route="route_1" />
<vehicle id="vehicle_701" depart="240" departLane="best" departSpeed="speedLimit" route="route_7" />
<vehicle id="vehicle_702" depart="244" departLane="best" departSpeed="speedLimit" route="route_7" />
<vehicle id="vehicle_50" depart="268" departLane="best" departSpeed="speedLimit" route="route_1" />
<vehicle id="vehicle_51" depart="269" departLane="best" departSpeed="speedLimit" route="route_1" />
<vehicle id="vehicle_52" depart="269" departLane="best" departSpeed="speedLimit" route="route_1" />
<vehicle id="vehicle_53" depart="271" departLane="best" departSpeed="speedLimit" route="route_1" />
<vehicle id="vehicle_54" depart="271" departLane="best" departSpeed="speedLimit" route="route_1" />
<vehicle id="vehicle_61" depart="272" departLane="best" departSpeed="speedLimit" route="route_11" />
<vehicle id="vehicle_55" depart="273" departLane="best" departSpeed="speedLimit" route="route_1" />
<vehicle id="vehicle_56" depart="276" departLane="best" departSpeed="speedLimit" route="route_1" />
<vehicle id="vehicle_57" depart="279" departLane="best" departSpeed="speedLimit" route="route_0" />
<vehicle id="vehicle_703" depart="282" departLane="best" departSpeed="speedLimit" route="route_7" />
<vehicle id="vehicle_58" depart="286" departLane="best" departSpeed="speedLimit" route="route_1" />
<vehicle id="vehicle_704" depart="288" departLane="best" departSpeed="speedLimit" route="route_7" />
<vehicle id="vehicle_705" depart="288" departLane="best" departSpeed="speedLimit" route="route_7" />
<vehicle id="vehicle_706" depart="292" departLane="best" departSpeed="speedLimit" route="route_8" />
<vehicle id="vehicle_59" depart="295" departLane="best" departSpeed="speedLimit" route="route_1" />
<vehicle id="vehicle_707" depart="296" departLane="best" departSpeed="speedLimit" route="route_7" />
<vehicle id="vehicle_60" depart="311" departLane="best" departSpeed="speedLimit" route="route_1" />
<vehicle id="vehicle_62" depart="317" departLane="best" departSpeed="speedLimit" route="route_9" />
<vehicle id="vehicle_63" depart="335" departLane="best" departSpeed="speedLimit" route="route_1" />
<vehicle id="vehicle_886" depart="336" departLane="best" departSpeed="speedLimit" route="route_1" />
<vehicle id="vehicle_708" depart="338" departLane="best" departSpeed="speedLimit" route="route_7" />
<vehicle id="vehicle_709" depart="338" departLane="best" departSpeed="speedLimit" route="route_7" />
<vehicle id="vehicle_710" depart="338" departLane="best" departSpeed="speedLimit" route="route_7" />
<vehicle id="vehicle_711" depart="340" departLane="best" departSpeed="speedLimit" route="route_7" />
<vehicle id="vehicle_712" depart="342" departLane="best" departSpeed="speedLimit" route="route_7" />
<vehicle id="vehicle_713" depart="344" departLane="best" departSpeed="speedLimit" route="route_7" />
<vehicle id="vehicle_714" depart="346" departLane="best" departSpeed="speedLimit" route="route_7" />
<vehicle id="vehicle_715" depart="346" departLane="best" departSpeed="speedLimit" route="route_7" />
<vehicle id="vehicle_64" depart="348" departLane="best" departSpeed="speedLimit" route="route_5" />
<vehicle id="vehicle_716" depart="350" departLane="best" departSpeed="speedLimit" route="route_7" />
<vehicle id="vehicle_717" depart="352" departLane="best" departSpeed="speedLimit" route="route_7" />
<vehicle id="vehicle_65" depart="354" departLane="best" departSpeed="speedLimit" route="route_0" />
<vehicle id="vehicle_718" depart="354" departLane="best" departSpeed="speedLimit" route="route_7" />
<vehicle id="vehicle_719" depart="356" departLane="best" departSpeed="speedLimit" route="route_7" />
<vehicle id="vehicle_720" depart="358" departLane="best" departSpeed="speedLimit" route="route_7" />
<vehicle id="vehicle_721" depart="362" departLane="best" departSpeed="speedLimit" route="route_7" />
<vehicle id="vehicle_722" depart="366" departLane="best" departSpeed="speedLimit" route="route_7" />
<vehicle id="vehicle_66" depart="367" departLane="best" departSpeed="speedLimit" route="route_11" />
<vehicle id="vehicle_67" depart="384" departLane="best" departSpeed="speedLimit" route="route_1" />
<vehicle id="vehicle_68" depart="385" departLane="best" departSpeed="speedLimit" route="route_1" />
<vehicle id="vehicle_69" depart="396" departLane="best" departSpeed="speedLimit" route="route_1" />
<vehicle id="vehicle_70" depart="397" departLane="best" departSpeed="speedLimit" route="route_1" />
<vehicle id="vehicle_71" depart="397" departLane="best" departSpeed="speedLimit" route="route_1" />
<vehicle id="vehicle_72" depart="398" departLane="best" departSpeed="speedLimit" route="route_1" />
<vehicle id="vehicle_73" depart="399" departLane="best" departSpeed="speedLimit" route="route_1" />
<vehicle id="vehicle_74" depart="405" departLane="best" departSpeed="speedLimit" route="route_1" />
<vehicle id="vehicle_723" depart="418" departLane="best" departSpeed="speedLimit" route="route_7" />
<vehicle id="vehicle_75" depart="419" departLane="best" departSpeed="speedLimit" route="route_1" />
<vehicle id="vehicle_76" depart="424" departLane="best" departSpeed="speedLimit" route="route_1" />
<vehicle id="vehicle_77" depart="425" departLane="best" departSpeed="speedLimit" route="route_1" />
<vehicle id="vehicle_724" depart="426" departLane="best" departSpeed="speedLimit" route="route_7" />
<vehicle id="vehicle_725" depart="428" departLane="best" departSpeed="speedLimit" route="route_7" />
<vehicle id="vehicle_78" depart="430" departLane="best" departSpeed="speedLimit" route="route_1" />
<vehicle id="vehicle_79" depart="431" departLane="best" departSpeed="speedLimit" route="route_1" />
<vehicle id="vehicle_80" depart="440" departLane="best" departSpeed="speedLimit" route="route_1" />
<vehicle id="vehicle_81" depart="441" departLane="best" departSpeed="speedLimit" route="route_1" />
<vehicle id="vehicle_82" depart="442" departLane="best" departSpeed="speedLimit" route="route_1" />
<vehicle id="vehicle_726" depart="442" departLane="best" departSpeed="speedLimit" route="route_7" />
<vehicle id="vehicle_83" depart="443" departLane="best" departSpeed="speedLimit" route="route_1" />
<vehicle id="vehicle_84" depart="446" departLane="best" departSpeed="speedLimit" route="route_1" />
<vehicle id="vehicle_86" depart="454" departLane="best" departSpeed="speedLimit" route="route_11" />
<vehicle id="vehicle_727" depart="454" departLane="best" departSpeed="speedLimit" route="route_7" />
<vehicle id="vehicle_85" depart="466" departLane="best" departSpeed="speedLimit" route="route_1" />
<vehicle id="vehicle_728" depart="472" departLane="best" departSpeed="speedLimit" route="route_7" />
<vehicle id="vehicle_729" depart="472" departLane="best" departSpeed="speedLimit" route="route_7" />
<vehicle id="vehicle_87" depart="473" departLane="best" departSpeed="speedLimit" route="route_1" />
<vehicle id="vehicle_730" depart="474" departLane="best" departSpeed="speedLimit" route="route_8" />
<vehicle id="vehicle_88" depart="494" departLane="best" departSpeed="speedLimit" route="route_2" />
<vehicle id="vehicle_89" depart="494" departLane="best" departSpeed="speedLimit" route="route_1" />
<vehicle id="vehicle_731" depart="500" departLane="best" departSpeed="speedLimit" route="route_7" />
<vehicle id="vehicle_90" depart="502" departLane="best" departSpeed="speedLimit" route="route_1" />
<vehicle id="vehicle_91" depart="502" departLane="best" departSpeed="speedLimit" route="route_1" />
<vehicle id="vehicle_93" depart="504" departLane="best" departSpeed="speedLimit" route="route_11" />
<vehicle id="vehicle_92" depart="507" departLane="best" departSpeed="speedLimit" route="route_1" />
<vehicle id="vehicle_94" depart="511" departLane="best" departSpeed="speedLimit" route="route_1" />
<vehicle id="vehicle_95" depart="514" departLane="best" departSpeed="speedLimit" route="route_1" />
<vehicle id="vehicle_96" depart="518" departLane="best" departSpeed="speedLimit" route="route_1" />
<vehicle id="vehicle_97" depart="519" departLane="best" departSpeed="speedLimit" route="route_3" />
<vehicle id="vehicle_98" depart="526" departLane="best" departSpeed="speedLimit" route="route_1" />
<vehicle id="vehicle_99" depart="527" departLane="best" departSpeed="speedLimit" route="route_1" />
<vehicle id="vehicle_100" depart="527" departLane="best" departSpeed="speedLimit" route="route_1" />
<vehicle id="vehicle_101" depart="528" departLane="best" departSpeed="speedLimit" route="route_1" />
<vehicle id="vehicle_732" depart="530" departLane="best" departSpeed="speedLimit" route="route_7" />
<vehicle id="vehicle_102" depart="531" departLane="best" departSpeed="speedLimit" route="route_1" />
<vehicle id="vehicle_733" depart="536" departLane="best" departSpeed="speedLimit" route="route_7" />
<vehicle id="vehicle_734" depart="538" departLane="best" departSpeed="speedLimit" route="route_7" />
<vehicle id="vehicle_735" depart="540" departLane="best" departSpeed="speedLimit" route="route_7" />
<vehicle id="vehicle_736" depart="542" departLane="best" departSpeed="speedLimit" route="route_7" />
<vehicle id="vehicle_737" depart="548" departLane="best" departSpeed="speedLimit" route="route_7" />
<vehicle id="vehicle_738" depart="554" departLane="best" departSpeed="speedLimit" route="route_7" />
<vehicle id="vehicle_103" depart="559" departLane="best" departSpeed="speedLimit" route="route_0" />
<vehicle id="vehicle_104" depart="559" departLane="best" departSpeed="speedLimit" route="route_1" />
<vehicle id="vehicle_739" depart="560" departLane="best" departSpeed="speedLimit" route="route_7" />
<vehicle id="vehicle_740" depart="572" departLane="best" departSpeed="speedLimit" route="route_7" />
<vehicle id="vehicle_105" depart="573" departLane="best" departSpeed="speedLimit" route="route_1" />
<vehicle id="vehicle_106" depart="573" departLane="best" departSpeed="speedLimit" route="route_1" />
<vehicle id="vehicle_107" depart="577" departLane="best" departSpeed="speedLimit" route="route_1" />
<vehicle id="vehicle_108" depart="580" departLane="best" departSpeed="speedLimit" route="route_1" />
<vehicle id="vehicle_109" depart="586" departLane="best" departSpeed="speedLimit" route="route_1" />
<vehicle id="vehicle_110" depart="586" departLane="best" departSpeed="speedLimit" route="route_1" />
<vehicle id="vehicle_111" depart="588" departLane="best" departSpeed="speedLimit" route="route_1" />
<vehicle id="vehicle_112" depart="593" departLane="best" departSpeed="speedLimit" route="route_0" />
<vehicle id="vehicle_113" depart="594" departLane="best" departSpeed="speedLimit" route="route_1" />
<vehicle id="vehicle_741" depart="600" departLane="best" departSpeed="speedLimit" route="route_7" />
<vehicle id="vehicle_742" depart="602" departLane="best" departSpeed="speedLimit" route="route_7" />
<vehicle id="vehicle_743" depart="606" departLane="best" departSpeed="speedLimit" route="route_7" />
<vehicle id="vehicle_114" depart="613" departLane="best" departSpeed="speedLimit" route="route_1" />
<vehicle id="vehicle_744" depart="614" departLane="best" departSpeed="speedLimit" route="route_7" />
<vehicle id="vehicle_745" depart="618" departLane="best" departSpeed="speedLimit" route="route_7" />
<vehicle id="vehicle_746" depart="620" departLane="best" departSpeed="speedLimit" route="route_7" />
<vehicle id="vehicle_747" depart="624" departLane="best" departSpeed="speedLimit" route="route_7" />
<vehicle id="vehicle_115" depart="627" departLane="best" departSpeed="speedLimit" route="route_1" />
<vehicle id="vehicle_748" depart="628" departLane="best" departSpeed="speedLimit" route="route_7" />
<vehicle id="vehicle_749" depart="634" departLane="best" departSpeed="speedLimit" route="route_7" />
<vehicle id="vehicle_116" depart="635" departLane="best" departSpeed="speedLimit" route="route_2" />
<vehicle id="vehicle_117" depart="635" departLane="best" departSpeed="speedLimit" route="route_1" />
<vehicle id="vehicle_118" depart="638" departLane="best" departSpeed="speedLimit" route="route_1" />
<vehicle id="vehicle_750" depart="640" departLane="best" departSpeed="speedLimit" route="route_7" />
<vehicle id="vehicle_119" depart="641" departLane="best" departSpeed="speedLimit" route="route_3" />
<vehicle id="vehicle_751" depart="650" departLane="best" departSpeed="speedLimit" route="route_7" />
<vehicle id="vehicle_120" depart="653" departLane="best" departSpeed="speedLimit" route="route_1" />
<vehicle id="vehicle_121" depart="659" departLane="best" departSpeed="speedLimit" route="route_1" />
<vehicle id="vehicle_122" depart="660" departLane="best" departSpeed="speedLimit" route="route_1" />
<vehicle id="vehicle_123" depart="669" departLane="best" departSpeed="speedLimit" route="route_1" />
<vehicle id="vehicle_752" depart="672" departLane="best" departSpeed="speedLimit" route="route_7" />
<vehicle id="vehicle_753" depart="672" departLane="best" departSpeed="speedLimit" route="route_7" />
<vehicle id="vehicle_754" depart="674" departLane="best" departSpeed="speedLimit" route="route_7" />
<vehicle id="vehicle_755" depart="676" departLane="best" departSpeed="speedLimit" route="route_7" />
<vehicle id="vehicle_756" depart="676" departLane="best" departSpeed="speedLimit" route="route_7" />
<vehicle id="vehicle_124" depart="678" departLane="best" departSpeed="speedLimit" route="route_1" />
<vehicle id="vehicle_125" depart="678" departLane="best" departSpeed="speedLimit" route="route_1" />
<vehicle id="vehicle_757" depart="680" departLane="best" departSpeed="speedLimit" route="route_7" />
<vehicle id="vehicle_758" depart="682" departLane="best" departSpeed="speedLimit" route="route_7" />
<vehicle id="vehicle_126" depart="684" departLane="best" departSpeed="speedLimit" route="route_9" />
<vehicle id="vehicle_759" depart="692" departLane="best" departSpeed="speedLimit" route="route_7" />
<vehicle id="vehicle_127" depart="710" departLane="best" departSpeed="speedLimit" route="route_1" />
<vehicle id="vehicle_128" depart="711" departLane="best" departSpeed="speedLimit" route="route_1" />
<vehicle id="vehicle_129" depart="713" departLane="best" departSpeed="speedLimit" route="route_1" />
<vehicle id="vehicle_130" depart="713" departLane="best" departSpeed="speedLimit" route="route_1" />
<vehicle id="vehicle_132" depart="715" departLane="best" departSpeed="speedLimit" route="route_3" />
<vehicle id="vehicle_131" depart="716" departLane="best" departSpeed="speedLimit" route="route_1" />
<vehicle id="vehicle_760" depart="726" departLane="best" departSpeed="speedLimit" route="route_7" />
<vehicle id="vehicle_133" depart="731" departLane="best" departSpeed="speedLimit" route="route_2" />
<vehicle id="vehicle_137" depart="733" departLane="best" departSpeed="speedLimit" route="route_5" />
<vehicle id="vehicle_134" depart="746" departLane="best" departSpeed="speedLimit" route="route_1" />
<vehicle id="vehicle_761" depart="758" departLane="best" departSpeed="speedLimit" route="route_7" />
<vehicle id="vehicle_135" depart="759" departLane="best" departSpeed="speedLimit" route="route_1" />
<vehicle id="vehicle_136" depart="759" departLane="best" departSpeed="speedLimit" route="route_1" />
<vehicle id="vehicle_762" depart="760" departLane="best" departSpeed="speedLimit" route="route_7" />
<vehicle id="vehicle_763" depart="760" departLane="best" departSpeed="speedLimit" route="route_7" />
<vehicle id="vehicle_764" depart="766" departLane="best" departSpeed="speedLimit" route="route_7" />
<vehicle id="vehicle_765" depart="766" departLane="best" departSpeed="speedLimit" route="route_7" />
<vehicle id="vehicle_766" depart="768" departLane="best" departSpeed="speedLimit" route="route_7" />
<vehicle id="vehicle_767" depart="770" departLane="best" departSpeed="speedLimit" route="route_7" />
<vehicle id="vehicle_138" depart="771" departLane="best" departSpeed="speedLimit" route="route_1" />
<vehicle id="vehicle_139" depart="774" departLane="best" departSpeed="speedLimit" route="route_9" />
<vehicle id="vehicle_768" depart="778" departLane="best" departSpeed="speedLimit" route="route_7" />
<vehicle id="vehicle_155" depart="784" departLane="best" departSpeed="speedLimit" route="route_5" />
<vehicle id="vehicle_769" depart="788" departLane="best" departSpeed="speedLimit" route="route_8" />
<vehicle id="vehicle_770" depart="788" departLane="best" departSpeed="speedLimit" route="route_7" />
<vehicle id="vehicle_771" depart="790" departLane="best" departSpeed="speedLimit" route="route_7" />
<vehicle id="vehicle_773" depart="792" departLane="best" departSpeed="speedLimit" route="route_6" />
<vehicle id="vehicle_140" depart="795" departLane="best" departSpeed="speedLimit" route="route_1" />
<vehicle id="vehicle_141" depart="797" departLane="best" departSpeed="speedLimit" route="route_1" />
<vehicle id="vehicle_142" depart="798" departLane="best" departSpeed="speedLimit" route="route_1" />
<vehicle id="vehicle_774" depart="800" departLane="best" departSpeed="speedLimit" route="route_7" />
<vehicle id="vehicle_143" depart="802" departLane="best" departSpeed="speedLimit" route="route_0" />
<vehicle id="vehicle_144" depart="804" departLane="best" departSpeed="speedLimit" route="route_1" />
<vehicle id="vehicle_775" depart="804" departLane="best" departSpeed="speedLimit" route="route_7" />
<vehicle id="vehicle_145" depart="807" departLane="best" departSpeed="speedLimit" route="route_1" />
<vehicle id="vehicle_146" depart="809" departLane="best" departSpeed="speedLimit" route="route_1" />
<vehicle id="vehicle_147" depart="811" departLane="best" departSpeed="speedLimit" route="route_1" />
<vehicle id="vehicle_148" depart="812" departLane="best" departSpeed="speedLimit" route="route_1" />
<vehicle id="vehicle_149" depart="813" departLane="best" departSpeed="speedLimit" route="route_1" />
<vehicle id="vehicle_150" depart="825" departLane="best" departSpeed="speedLimit" route="route_1" />
<vehicle id="vehicle_151" depart="826" departLane="best" departSpeed="speedLimit" route="route_1" />
<vehicle id="vehicle_152" depart="827" departLane="best" departSpeed="speedLimit" route="route_1" />
<vehicle id="vehicle_153" depart="827" departLane="best" departSpeed="speedLimit" route="route_1" />
<vehicle id="vehicle_154" depart="844" departLane="best" departSpeed="speedLimit" route="route_1" />
<vehicle id="vehicle_776" depart="844" departLane="best" departSpeed="speedLimit" route="route_6" />
<vehicle id="vehicle_777" depart="844" departLane="best" departSpeed="speedLimit" route="route_7" />
<vehicle id="vehicle_156" depart="855" departLane="best" departSpeed="speedLimit" route="route_1" />
<vehicle id="vehicle_778" depart="870" departLane="best" departSpeed="speedLimit" route="route_8" />
<vehicle id="vehicle_779" depart="870" departLane="best" departSpeed="speedLimit" route="route_7" />
<vehicle id="vehicle_157" depart="872" departLane="best" departSpeed="speedLimit" route="route_3" />
<vehicle id="vehicle_158" depart="872" departLane="best" departSpeed="speedLimit" route="route_1" />
<vehicle id="vehicle_162" depart="880" departLane="best" departSpeed="speedLimit" route="route_10" />
<vehicle id="vehicle_159" depart="894" departLane="best" departSpeed="speedLimit" route="route_2" />
<vehicle id="vehicle_160" depart="894" departLane="best" departSpeed="speedLimit" route="route_1" />
<vehicle id="vehicle_161" depart="900" departLane="best" departSpeed="speedLimit" route="route_1" />
<vehicle id="vehicle_780" depart="902" departLane="best" departSpeed="speedLimit" route="route_8" />
<vehicle id="vehicle_163" depart="920" departLane="best" departSpeed="speedLimit" route="route_3" />
<vehicle id="vehicle_781" depart="920" departLane="best" departSpeed="speedLimit" route="route_7" />
<vehicle id="vehicle_164" depart="921" departLane="best" departSpeed="speedLimit" route="route_1" />
<vehicle id="vehicle_782" depart="928" departLane="best" departSpeed="speedLimit" route="route_7" />
<vehicle id="vehicle_165" depart="935" departLane="best" departSpeed="speedLimit" route="route_1" />
<vehicle id="vehicle_166" depart="936" departLane="best" departSpeed="speedLimit" route="route_5" />
<vehicle id="vehicle_175" depart="938" departLane="best" departSpeed="speedLimit" route="route_11" />
<vehicle id="vehicle_783" depart="940" departLane="best" departSpeed="speedLimit" route="route_7" />
<vehicle id="vehicle_167" depart="943" departLane="best" departSpeed="speedLimit" route="route_1" />
<vehicle id="vehicle_784" depart="944" departLane="best" departSpeed="speedLimit" route="route_7" />